*GROWTH ASPECTS OUTPUT FILE

*RUN   1        :  NASA-PIX Field #1       
 MODEL          : PTSUB020 - POTATO    
 EXPERIMENT     : OSBO8801 PT     OSBO8801PT Oregon: Hermiston commercial data, 
 TREATMENT  1   :  NASA-PIX Field #1       

! YR       Days  Days  Grow       Fresh                Dry Weight                           Pod      Phot. Grow       Leaf Shell   Spec    Canopy          Root  ³                Root Length Density                     ³
!   and   after after Stage  LAI  Yield  Leaf  Stem Tuber  Root  Crop  Tops DLeaf   HI   Wgt.   No.    Water     Nit.   Nit -ing   Leaf  Hght  Brdth      Depth  ³                cm3/cm3   of soil                       ³
!     DOY   sim plant             Mg/Ha  ³<--------------- kg/Ha --------------->³      Kg/Ha        ³<Stress (0-1)>³    %     %   Area    m     m           m   ³<------------------------------------------------------>³
@YEAR DOY   DAS   DAP  GSTD  LAID  UYAD  LWAD  SWAD  UWAD  RWAD  TWAD  CWAD  DWAD  HIAD  EWAD  E#AD  WSPD  WSGD  NSTD  LN%D  SH%D  SLAD  CHTD  CWID  EWSD  RDPD  RL1D  RL2D  RL3D  RL4D  RL5D  RL6D  RL7D  RL8D  RL9D  RL10
 1988 106   105     0     7  0.00   0.0     0     0     0     0     0     0     0 0.000     0     0 0.000 0.000 0.000  0.00  0.00   0.0  0.00  0.00 0.000  0.00  0.00  0.00  0.00  0.00  0.00  0.00  0.00  0.00  0.00  0.00
 1988 107   106     1     7  0.00   0.0     0     0     0     1     0     0     0 0.000     0     0 0.000 0.000 0.000  0.00  0.00   0.0  0.00  0.00 0.000  0.00  0.00  0.00  0.00  0.00  0.00  0.00  0.00  0.00  0.00  0.00
 1988 108   107     2     7  0.00   0.0     0     0     0     2     0     0     0 0.000     0     0 0.000 0.000 0.000  0.00  0.00   0.0  0.00  0.00 0.000  0.10  0.01  0.00  0.00  0.00  0.00  0.00  0.00  0.00  0.00  0.00
 1988 109   108     3     7  0.00   0.0     0     0     0     3     0     0     0 0.000     0     0 0.000 0.000 0.000  0.00  0.00   0.0  0.00  0.00 0.000  0.10  0.01  0.01  0.00  0.00  0.00  0.00  0.00  0.00  0.00  0.00
 1988 110   109     4     7  0.00   0.0     0     0     0     4     0     0     0 0.000     0     0 0.000 0.000 0.000  0.00  0.00   0.0  0.00  0.00 0.000  0.10  0.02  0.01  0.00  0.00  0.00  0.00  0.00  0.00  0.00  0.00
 1988 111   110     5     7  0.00   0.0     0     0     0     5     0     0     0 0.000     0     0 0.000 0.000 0.000  0.00  0.00   0.0  0.00  0.00 0.000  0.10  0.03  0.02  0.00  0.00  0.00  0.00  0.00  0.00  0.00  0.00
 1988 112   111     6     7  0.00   0.0     0     0     0     6     0     0     0 0.000     0     0 0.000 0.000 0.000  0.00  0.00   0.0  0.00  0.00 0.000  0.10  0.04  0.02  0.00  0.00  0.00  0.00  0.00  0.00  0.00  0.00
 1988 113   112     7     7  0.00   0.0     0     0     0     6     0     0     0 0.000     0     0 0.000 0.000 0.000  0.00  0.00   0.0  0.00  0.00 0.000  0.10  0.04  0.02  0.00  0.00  0.00  0.00  0.00  0.00  0.00  0.00
 1988 114   113     8     7  0.00   0.0     0     0     0     7     0     0     0 0.000     0     0 0.000 0.000 0.000  0.00  0.00   0.0  0.00  0.00 0.000  0.10  0.04  0.03  0.00  0.00  0.00  0.00  0.00  0.00  0.00  0.00
 1988 115   114     9     7  0.00   0.0     0     0     0     8     0     0     0 0.000     0     0 0.000 0.000 0.000  0.00  0.00   0.0  0.00  0.00 0.000  0.10  0.05  0.03  0.00  0.00  0.00  0.00  0.00  0.00  0.00  0.00
 1988 116   115    10     7  0.00   0.0     0     0     0     8     0     0     0 0.000     0     0 0.000 0.000 0.000  0.00  0.00   0.0  0.00  0.00 0.000  0.10  0.05  0.03  0.00  0.00  0.00  0.00  0.00  0.00  0.00  0.00
 1988 117   116    11     7  0.00   0.0     0     0     0     9     0     0     0 0.000     0     0 0.000 0.000 0.000  0.00  0.00   0.0  0.00  0.00 0.000  0.10  0.05  0.04  0.00  0.00  0.00  0.00  0.00  0.00  0.00  0.00
 1988 118   117    12     7  0.00   0.0     0     0     0    10     0     0     0 0.000     0     0 0.000 0.000 0.000  0.00  0.00   0.0  0.00  0.00 0.000  0.10  0.05  0.04  0.00  0.00  0.00  0.00  0.00  0.00  0.00  0.00
 1988 119   118    13     7  0.00   0.0     0     0     0    11     0     0     0 0.000     0     0 0.000 0.000 0.000  0.00  0.00   0.0  0.00  0.00 0.000  0.10  0.05  0.05  0.00  0.00  0.00  0.00  0.00  0.00  0.00  0.00
 1988 120   119    14     7  0.00   0.0     0     0     0    12     0     0     0 0.000     0     0 0.000 0.000 0.000  0.00  0.00   0.0  0.00  0.00 0.000  0.10  0.06  0.05  0.00  0.00  0.00  0.00  0.00  0.00  0.00  0.00
 1988 121   120    15     7  0.00   0.0     0     0     0    13     0     0     0 0.000     0     0 0.000 0.000 0.000  0.00  0.00   0.0  0.00  0.00 0.000  0.10  0.06  0.06  0.00  0.00  0.00  0.00  0.00  0.00  0.00  0.00
 1988 122   121    16     7  0.00   0.0     0     0     0    14     0     0     0 0.000     0     0 0.000 0.000 0.000  0.00  0.00   0.0  0.00  0.00 0.000  0.10  0.07  0.06  0.00  0.00  0.00  0.00  0.00  0.00  0.00  0.00
 1988 123   122    17     7  0.00   0.0     0     0     0    15     0     0     0 0.000     0     0 0.000 0.000 0.000  0.00  0.00   0.0  0.00  0.00 0.000  0.10  0.07  0.07  0.00  0.00  0.00  0.00  0.00  0.00  0.00  0.00
 1988 124   123    18     7  0.00   0.0     0     0     0    16     0     0     0 0.000     0     0 0.000 0.000 0.000  0.00  0.00   0.0  0.00  0.00 0.000  0.10  0.08  0.07  0.00  0.00  0.00  0.00  0.00  0.00  0.00  0.00
 1988 125   124    19     7  0.00   0.0     0     0     0    16     0     0     0 0.000     0     0 0.000 0.000 0.000  0.00  0.00   0.0  0.00  0.00 0.000  0.10  0.08  0.07  0.00  0.00  0.00  0.00  0.00  0.00  0.00  0.00
 1988 126   125    20     7  0.00   0.0     0     0     0    17     0     0     0 0.000     0     0 0.000 0.000 0.000  0.00  0.00   0.0  0.00  0.00 0.000  0.10  0.08  0.08  0.00  0.00  0.00  0.00  0.00  0.00  0.00  0.00
 1988 127   126    21     7  0.00   0.0     0     0     0    18     0     0     0 0.000     0     0 0.000 0.000 0.000  0.00  0.00   0.0  0.00  0.00 0.000  0.10  0.08  0.08  0.00  0.00  0.00  0.00  0.00  0.00  0.00  0.00
 1988 128   127    22     7  0.00   0.0     0     0     0    19     0     0     0 0.000     0     0 0.000 0.000 0.000  0.00  0.00   0.0  0.00  0.00 0.000  0.10  0.08  0.09  0.00  0.00  0.00  0.00  0.00  0.00  0.00  0.00
 1988 129   128    23     1  0.02   0.0     6     6     0    21    13    12     0 0.038     0     0 0.000 0.000 0.000  4.61  0.00 270.0  0.00  0.00 0.000  0.10  0.08  0.10  0.00  0.00  0.00  0.00  0.00  0.00  0.00  0.00
 1988 130   129    24     1  0.02   0.0     8     7     0    23    16    15     0 0.030     0     0 0.000 0.000 0.000  4.65  0.00 270.0  0.00  0.00 0.000  0.11  0.08  0.11  0.00  0.00  0.00  0.00  0.00  0.00  0.00  0.00
 1988 131   130    25     1  0.03   0.0    13    11     0    26    24    24     0 0.020     0     0 0.000 0.000 0.000  4.96  0.00 270.0  0.00  0.00 0.000  0.12  0.09  0.12  0.00  0.00  0.00  0.00  0.00  0.00  0.00  0.00
 1988 132   131    26     1  0.05   0.0    19    16     0    31    36    35     0 0.014     0     0 0.000 0.000 0.000  4.93  0.00 270.0  0.00  0.00 0.000  0.14  0.11  0.14  0.00  0.00  0.00  0.00  0.00  0.00  0.00  0.00
 1988 133   132    27     1  0.08   0.0    28    22     0    37    50    50     0 0.010     0     0 0.000 0.000 0.000  4.90  0.00 270.0  0.00  0.00 0.000  0.15  0.12  0.18  0.00  0.00  0.00  0.00  0.00  0.00  0.00  0.00
 1988 134   133    28     1  0.10   0.0    38    29     0    44    68    67     0 0.007     0     0 0.000 0.000 0.000  4.86  0.00 270.0  0.00  0.00 0.000  0.16  0.12  0.22  0.00  0.00  0.00  0.00  0.00  0.00  0.00  0.00
 1988 135   134    29     1  0.13   0.0    49    38     0    50    87    87     0 0.006     0     0 0.000 0.085 0.000  4.82  0.00 270.0  0.00  0.00 0.000  0.17  0.12  0.27  0.01  0.00  0.00  0.00  0.00  0.00  0.00  0.00
 1988 136   135    30     1  0.16   0.0    60    46     0    58   107   106     0 0.004     0     0 0.000 0.157 0.000  4.77  0.00 270.0  0.00  0.00 0.000  0.19  0.12  0.32  0.02  0.00  0.00  0.00  0.00  0.00  0.00  0.00
 1988 137   136    31     1  0.19   0.0    71    55     0    64   127   126     0 0.004     0     0 0.000 0.000 0.000  4.81  0.00 270.0  0.00  0.00 0.000  0.20  0.12  0.37  0.04  0.00  0.00  0.00  0.00  0.00  0.00  0.00
 1988 138   137    32     1  0.23   0.0    84    64     0    71   149   148     0 0.003     0     0 0.000 0.065 0.000  4.75  0.00 270.0  0.00  0.00 0.000  0.21  0.12  0.41  0.05  0.00  0.00  0.00  0.00  0.00  0.00  0.00
 1988 139   138    33     1  0.26   0.0    97    74     0    78   171   171     0 0.003     0     0 0.000 0.091 0.000  4.68  0.00 270.0  0.00  0.00 0.000  0.22  0.11  0.44  0.07  0.00  0.00  0.00  0.00  0.00  0.00  0.00
 1988 140   139    34     1  0.34   0.0   127    96     0    93   223   223     0 0.002     0     0 0.000 0.150 0.000  4.74  0.00 270.0  0.00  0.00 0.000  0.23  0.14  0.47  0.08  0.00  0.00  0.00  0.00  0.00  0.00  0.00
 1988 141   140    35     1  0.44   0.0   164   124     0   111   288   288     0 0.002     0     0 0.000 0.234 0.000  4.69  0.00 270.0  0.00  0.00 0.000  0.24  0.19  0.53  0.12  0.00  0.00  0.00  0.00  0.00  0.00  0.00
 1988 142   141    36     1  0.54   0.0   199   151     0   127   350   350     1 0.001     0     0 0.162 0.441 0.000  4.64  0.00 270.0  0.00  0.00 0.000  0.25  0.19  0.62  0.17  0.00  0.00  0.00  0.00  0.00  0.00  0.00
 1988 143   142    37     1  0.62   0.0   230   174     0   141   404   404     1 0.001     0     0 0.021 0.347 0.000  4.58  0.00 270.0  0.00  0.00 0.000  0.26  0.19  0.69  0.22  0.00  0.00  0.00  0.00  0.00  0.00  0.00
 1988 144   143    38     1  0.77   0.0   286   217     0   163   503   503     1 0.001     0     0 0.000 0.000 0.000  4.69  0.00 270.0  0.00  0.00 0.000  0.28  0.23  0.73  0.26  0.00  0.00  0.00  0.00  0.00  0.00  0.00
 1988 145   144    39     1  0.95   0.0   353   267     0   190   621   620     2 0.001     0     0 0.000 0.000 0.000  4.63  0.00 270.0  0.00  0.00 0.000  0.29  0.30  0.80  0.32  0.00  0.00  0.00  0.00  0.00  0.00  0.00
 1988 146   145    40     1  1.12   0.0   415   314     0   215   730   729     2 0.001     0     0 0.000 0.029 0.000  4.57  0.00 270.0  0.00  0.00 0.000  0.30  0.30  0.91  0.42  0.00  0.00  0.00  0.00  0.00  0.00  0.00
 1988 147   146    41     1  1.26   0.0   467   353     0   236   820   820     3 0.001     0     0 0.000 0.203 0.000  4.50  0.00 270.0  0.00  0.00 0.000  0.31  0.30  1.00  0.51  0.00  0.00  0.00  0.00  0.00  0.00  0.00
 1988 148   147    42     1  1.55   0.0   574   435     0   279  1009  1009     4 0.000     0     0 0.000 0.110 0.000  4.47  0.00 270.0  0.00  0.00 0.000  0.33  0.35  1.06  0.57  0.01  0.00  0.00  0.00  0.00  0.00  0.00
 1988 149   148    43     1  1.66   0.0   616   467     0   297  1083  1083     5 0.000     0     0 0.000 0.000 0.000  4.54  0.00 270.0  0.00  0.00 0.000  0.34  0.43  1.20  0.70  0.02  0.00  0.00  0.00  0.00  0.00  0.00
 1988 150   149    44     1  1.88   0.0   695   527     0   329  1222  1222     6 0.000     0     0 0.000 0.000 0.000  4.73  0.00 270.0  0.00  0.00 0.000  0.35  0.45  1.25  0.74  0.03  0.00  0.00  0.00  0.00  0.00  0.00
 1988 151   150    45     1  2.10   0.0   779   591     0   363  1370  1370     7 0.000     0     0 0.000 0.000 0.000  4.86  0.00 270.0  0.00  0.00 0.000  0.36  0.54  1.34  0.83  0.05  0.00  0.00  0.00  0.00  0.00  0.00
 1988 152   151    46     1  2.23   0.0   826   627     0   382  1453  1453     9 0.000     0     0 0.000 0.000 0.000  4.94  0.00 270.0  0.00  0.00 0.000  0.37  0.63  1.44  0.92  0.06  0.00  0.00  0.00  0.00  0.00  0.00
 1988 153   152    47     1  2.45   0.0   906   688     0   415  1595  1594    11 0.000     0     0 0.000 0.000 0.000  5.02  0.00 270.0  0.00  0.00 0.000  0.38  0.67  1.49  0.97  0.07  0.00  0.00  0.00  0.00  0.00  0.00
 1988 154   153    48     1  2.66   0.0   985   749     0   447  1735  1734    13 0.000     0     0 0.000 0.000 0.000  5.03  0.00 270.0  0.00  0.00 0.000  0.39  0.75  1.58  1.06  0.10  0.00  0.00  0.00  0.00  0.00  0.00
 1988 155   154    49     1  2.80   0.0  1036   789     0   469  1826  1825    15 0.000     0     0 0.000 0.000 0.000  5.09  0.00 270.0  0.00  0.00 0.000  0.40  0.83  1.66  1.14  0.12  0.00  0.00  0.00  0.00  0.00  0.00
 1988 156   155    50     1  3.02   0.0  1120   854     0   503  1975  1974    17 0.000     0     0 0.000 0.000 0.000  5.10  0.00 270.0  0.00  0.00 0.000  0.41  0.88  1.72  1.19  0.14  0.00  0.00  0.00  0.00  0.00  0.00
 1988 157   156    51     1  3.14   0.0  1164   889     0   522  2053  2053    20 0.000     0     0 0.000 0.000 0.000  5.14  0.00 270.0  0.00  0.00 0.000  0.42  0.96  1.81  1.28  0.17  0.00  0.00  0.00  0.00  0.00  0.00
 1988 158   157    52     1  3.43   0.0  1269   970     0   565  2239  2239    23 0.000     0     0 0.000 0.000 0.000  5.06  0.00 270.0  0.00  0.00 0.000  0.43  1.00  1.85  1.32  0.19  0.00  0.00  0.00  0.00  0.00  0.00
 1988 159   158    53     1  3.63   0.0  1344  1029     0   596  2374  2373    26 0.000     0     0 0.000 0.000 0.000  5.07  0.00 270.0  0.00  0.00 0.000  0.44  1.10  1.96  1.42  0.23  0.00  0.00  0.00  0.00  0.00  0.00
 1988 160   159    54     1  3.86   0.0  1431  1097     0   633  2528  2528    30 0.000     0     0 0.000 0.000 0.000  5.13  0.00 270.0  0.00  0.00 0.000  0.45  1.17  2.04  1.50  0.26  0.00  0.00  0.00  0.00  0.00  0.00
 1988 161   160    55     2  4.00   0.0  1480  1136     9   649  2625  2616    33 0.004     0     0 0.000 0.000 0.000  5.16  0.00 270.0  0.00  0.00 0.000  0.46  1.24  2.13  1.58  0.30  0.00  0.00  0.00  0.00  0.00  0.00
 1988 162   161    56     2  4.14   0.1  1534  1179    22   668  2734  2713    37 0.008     0     0 0.000 0.000 0.000  5.18  0.00 270.0  0.00  0.00 0.000  0.47  1.27  2.16  1.62  0.32  0.00  0.00  0.00  0.00  0.00  0.00
 1988 163   162    57     2  4.29   0.3  1589  1224    66   687  2879  2813    41 0.023     0     0 0.000 0.000 0.000  5.20  0.00 270.0  0.00  0.00 0.000  0.48  1.30  2.20  1.66  0.34  0.00  0.00  0.00  0.00  0.00  0.00
 1988 164   163    58     2  4.45   0.7  1650  1273   133   708  3056  2923    46 0.044     0     0 0.000 0.000 0.000  5.21  0.00 270.0  0.00  0.00 0.000  0.49  1.34  2.24  1.70  0.36  0.00  0.00  0.00  0.00  0.00  0.00
 1988 165   164    59     2  4.61   1.1  1709  1321   224   728  3254  3030    52 0.069     0     0 0.000 0.000 0.000  5.23  0.00 270.0  0.00  0.00 0.000  0.51  1.38  2.29  1.75  0.38  0.00  0.00  0.00  0.00  0.00  0.00
 1988 166   165    60     2  4.77   1.7  1765  1370   339   749  3474  3135    60 0.098     0     0 0.000 0.000 0.000  5.26  0.00 270.0  0.00  0.00 0.000  0.52  1.42  2.33  1.79  0.40  0.01  0.00  0.00  0.00  0.00  0.00
 1988 167   166    61     2  4.91   2.3  1819  1419   464   770  3701  3238    71 0.125     0     0 0.000 0.000 0.000  5.28  0.00 270.0  0.00  0.00 0.000  0.53  1.46  2.37  1.83  0.42  0.01  0.00  0.00  0.00  0.00  0.00
 1988 168   167    62     2  5.04   2.9  1866  1464   589   789  3919  3330    84 0.150     0     0 0.000 0.000 0.000  5.31  0.00 270.0  0.00  0.00 0.000  0.54  1.50  2.41  1.88  0.44  0.01  0.00  0.00  0.00  0.00  0.00
 1988 169   168    63     2  5.17   3.8  1916  1512   751   810  4179  3428   100 0.180     0     0 0.000 0.000 0.000  5.33  0.00 270.0  0.00  0.00 0.000  0.56  1.53  2.45  1.92  0.46  0.01  0.00  0.00  0.00  0.00  0.00
 1988 170   169    64     2  5.30   4.6  1962  1561   930   831  4453  3523   118 0.209     0     0 0.000 0.000 0.000  5.36  0.00 270.0  0.00  0.00 0.000  0.57  1.56  2.49  1.97  0.48  0.02  0.00  0.00  0.00  0.00  0.00
 1988 171   170    65     2  5.42   5.3  2007  1610  1057   851  4674  3617   138 0.226     0     0 0.000 0.000 0.000  5.33  0.00 270.0  0.00  0.00 0.000  0.58  1.59  2.53  2.01  0.50  0.02  0.00  0.00  0.00  0.00  0.00
 1988 172   171    66     2  5.52   6.2  2045  1655  1244   871  4944  3700   161 0.252     0     0 0.000 0.000 0.000  5.36  0.00 270.0  0.00  0.00 0.000  0.60  1.63  2.57  2.06  0.52  0.02  0.00  0.00  0.00  0.00  0.00
 1988 173   172    67     2  5.62   7.2  2081  1701  1431   890  5212  3782   186 0.275     0     0 0.000 0.000 0.000  5.39  0.00 270.0  0.00  0.00 0.000  0.61  1.67  2.60  2.10  0.54  0.03  0.00  0.00  0.00  0.00  0.00
 1988 174   173    68     2  5.70   8.0  2109  1742  1599   908  5450  3851   213 0.293     0     0 0.000 0.000 0.000  5.40  0.00 270.0  0.00  0.00 0.000  0.62  1.71  2.63  2.14  0.56  0.03  0.01  0.00  0.00  0.00  0.00
 1988 175   174    69     2  5.79   9.1  2146  1791  1824   929  5760  3937   241 0.317     0     0 0.000 0.000 0.000  5.43  0.00 270.0  0.00  0.00 0.000  0.63  1.74  2.66  2.18  0.58  0.03  0.01  0.00  0.00  0.00  0.00
 1988 176   175    70     2  5.88  10.2  2180  1840  2049   950  6068  4020   272 0.338     0     0 0.000 0.000 0.000  5.46  0.00 270.0  0.00  0.00 0.000  0.64  1.77  2.69  2.22  0.60  0.03  0.01  0.00  0.00  0.00  0.00
 1988 177   176    71     2  5.97  11.4  2212  1888  2274   970  6373  4100   305 0.357     0     0 0.000 0.000 0.000  5.46  0.00 270.0  0.00  0.00 0.000  0.65  1.80  2.73  2.27  0.62  0.04  0.01  0.00  0.00  0.00  0.00
 1988 178   177    72     2  6.05  12.2  2241  1937  2437   991  6615  4178   340 0.368     0     0 0.000 0.000 0.000  5.42  0.00 270.0  0.00  0.00 0.000  0.65  1.82  2.75  2.31  0.64  0.04  0.02  0.00  0.00  0.00  0.00
 1988 179   178    73     2  6.13  13.3  2269  1986  2662  1012  6917  4255   376 0.385     0     0 0.000 0.000 0.000  5.45  0.00 270.0  0.00  0.00 0.000  0.65  1.87  2.78  2.36  0.67  0.05  0.02  0.00  0.00  0.00  0.00
 1988 180   179    74     2  6.20  14.4  2295  2034  2887  1033  7216  4329   415 0.400     0     0 0.000 0.000 0.000  5.47  0.00 270.0  0.00  0.00 0.000  0.65  1.92  2.80  2.40  0.69  0.05  0.02  0.00  0.00  0.00  0.00
 1988 181   180    75     2  6.26  15.3  2320  2082  3060  1053  7463  4402   455 0.410     0     0 0.000 0.000 0.000  5.45  0.00 270.0  0.00  0.00 0.000  0.65  1.98  2.82  2.44  0.72  0.05  0.03  0.00  0.00  0.00  0.00
 1988 182   181    76     2  6.32  16.2  2343  2131  3237  1074  7710  4474   497 0.420     0     0 0.000 0.000 0.000  5.39  0.00 270.0  0.00  0.00 0.000  0.65  2.04  2.83  2.48  0.75  0.06  0.03  0.00  0.00  0.00  0.00
 1988 183   182    77     2  6.38  17.0  2364  2180  3409  1095  7952  4544   541 0.429     0     0 0.000 0.000 0.000  5.40  0.00 270.0  0.00  0.00 0.000  0.65  2.06  2.87  2.51  0.77  0.06  0.03  0.00  0.00  0.00  0.00
 1988 184   183    78     2  6.44  17.9  2384  2228  3584  1115  8196  4612   586 0.437     0     0 0.000 0.000 0.000  5.38  0.00 270.0  0.00  0.00 0.000  0.65  2.09  2.91  2.54  0.80  0.06  0.04  0.00  0.00  0.00  0.00
 1988 185   184    79     2  6.49  18.8  2402  2277  3767  1136  8446  4679   632 0.446     0     0 0.000 0.000 0.000  5.33  0.00 270.0  0.00  0.00 0.000  0.65  2.11  2.94  2.58  0.83  0.07  0.04  0.00  0.00  0.00  0.00
 1988 186   185    80     2  6.53  19.8  2419  2326  3953  1157  8698  4745   680 0.455     0     0 0.000 0.000 0.000  5.30  0.00 270.0  0.00  0.00 0.000  0.65  2.18  2.97  2.60  0.86  0.07  0.04  0.00  0.00  0.00  0.00
 1988 187   186    81     2  6.57  20.7  2432  2372  4142  1177  8946  4804   729 0.463     0     0 0.000 0.000 0.000  5.32  0.00 270.0  0.00  0.00 0.000  0.65  2.23  3.01  2.63  0.88  0.08  0.05  0.00  0.00  0.00  0.00
 1988 188   187    82     2  6.61  21.7  2447  2421  4333  1197  9200  4868   779 0.471     0     0 0.000 0.000 0.000  5.33  0.00 270.0  0.00  0.00 0.000  0.65  2.27  3.05  2.65  0.91  0.08  0.05  0.00  0.00  0.00  0.00
 1988 189   188    83     2  6.64  22.6  2461  2469  4526  1218  9456  4930   830 0.479     0     0 0.000 0.000 0.000  5.29  0.00 270.0  0.00  0.00 0.000  0.65  2.32  3.08  2.68  0.94  0.09  0.06  0.00  0.00  0.00  0.00
 1988 190   189    84     2  6.68  23.6  2473  2518  4722  1239  9714  4991   882 0.486     0     0 0.000 0.000 0.000  5.22  0.00 270.0  0.00  0.00 0.000  0.65  2.37  3.10  2.70  0.97  0.09  0.06  0.00  0.00  0.00  0.00
 1988 191   190    85     2  6.68  24.3  2474  2558  4864  1256  9897  5032   935 0.491     0     0 0.000 0.000 0.000  5.23  0.00 270.0  0.00  0.00 0.000  0.65  2.39  3.14  2.73  1.00  0.09  0.06  0.00  0.00  0.00  0.00
 1988 192   191    86     2  6.69  25.1  2479  2601  5019  1275 10100  5080   988 0.497     0     0 0.000 0.000 0.000  5.21  0.00 270.0  0.00  0.00 0.000  0.65  2.40  3.16  2.76  1.02  0.10  0.07  0.00  0.00  0.00  0.00
 1988 193   192    87     2  6.72  26.1  2490  2650  5221  1295 10362  5140  1042 0.504     0     0 0.000 0.000 0.000  5.17  0.00 270.0  0.00  0.00 0.000  0.65  2.47  3.17  2.77  1.05  0.10  0.07  0.00  0.00  0.00  0.00
 1988 194   193    88     2  6.75  27.1  2501  2699  5426  1316 10625  5200  1096 0.511     0     0 0.000 0.000 0.000  5.12  0.00 270.0  0.00  0.00 0.000  0.65  2.55  3.19  2.80  1.08  0.11  0.08  0.00  0.00  0.00  0.00
 1988 195   194    89     2  6.78  28.2  2511  2747  5633  1337 10891  5258  1151 0.517     0     0 0.000 0.000 0.000  5.11  0.00 270.0  0.00  0.00 0.000  0.65  2.59  3.24  2.82  1.10  0.11  0.08  0.00  0.00  0.00  0.00
 1988 196   195    90     2  6.80  29.2  2520  2796  5842  1358 11158  5316  1207 0.524     0     0 0.000 0.000 0.000  5.11  0.00 270.0  0.00  0.00 0.000  0.65  2.63  3.29  2.84  1.12  0.12  0.08  0.00  0.00  0.00  0.00
 1988 197   196    91     2  6.83  30.3  2528  2844  6054  1378 11427  5372  1263 0.530     0     0 0.000 0.000 0.000  5.06  0.00 270.0  0.00  0.00 0.000  0.65  2.66  3.34  2.86  1.15  0.12  0.09  0.00  0.00  0.00  0.00
 1988 198   197    92     2  6.67  31.3  2471  2844  6268  1378 11584  5315  1320 0.541     0     0 0.000 0.000 0.000  5.09  0.00 270.0  0.00  0.00 0.000  0.65  2.69  3.37  2.88  1.18  0.13  0.09  0.00  0.00  0.00  0.00
 1988 199   198    93     2  6.69  32.3  2479  2890  6450  1398 11819  5369  1373 0.546     0     0 0.000 0.000 0.000  5.05  0.00 270.0  0.00  0.00 0.000  0.65  2.69  3.37  2.88  1.18  0.13  0.09  0.00  0.00  0.00  0.00
 1988 200   199    94     2  6.72  33.4  2490  2939  6671  1418 12099  5429  1427 0.551     0     0 0.000 0.000 0.000  5.04  0.00 270.0  0.00  0.00 0.000  0.65  2.78  3.39  2.90  1.20  0.13  0.10  0.00  0.00  0.00  0.00
 1988 201   200    95     2  6.75  34.5  2501  2987  6894  1439 12381  5488  1481 0.557     0     0 0.000 0.000 0.000  4.98  0.00 270.0  0.00  0.00 0.000  0.65  2.87  3.40  2.93  1.22  0.14  0.10  0.00  0.00  0.00  0.00
 1988 202   201    96     2  6.75  35.3  2501  3029  7061  1457 12591  5530  1536 0.561     0     0 0.000 0.000 0.000  5.01  0.00 270.0  0.00  0.00 0.000  0.65  2.90  3.46  2.95  1.24  0.14  0.11  0.00  0.00  0.00  0.00
 1988 203   202    97     2  6.69  35.7  2477  3052  7135  1467 12665  5529  1591 0.563     0     0 0.000 0.000 0.000  5.04  0.00 270.0  0.00  0.00 0.000  0.65  2.93  3.50  2.96  1.25  0.15  0.11  0.00  0.00  0.00  0.00
 1988 204   203    98     2  6.66  36.1  2467  3084  7225  1481 12776  5551  1644 0.566     0     0 0.000 0.000 0.000  5.03  0.00 270.0  0.00  0.00 0.000  0.65  2.94  3.51  2.97  1.26  0.15  0.11  0.00  0.00  0.00  0.00
 1988 205   204    99     2  6.68  36.5  2475  3130  7303  1500 12907  5605  1697 0.566     0     0 0.000 0.000 0.000  5.01  0.00 270.0  0.00  0.00 0.000  0.65  2.93  3.53  2.99  1.27  0.15  0.12  0.00  0.00  0.00  0.00
 1988 206   205   100     2  6.70  37.4  2481  3174  7483  1519 13137  5655  1750 0.570     0     0 0.000 0.000 0.000  4.96  0.00 270.0  0.00  0.00 0.000  0.65  2.94  3.55  3.02  1.29  0.16  0.12  0.00  0.00  0.00  0.00
 1988 207   206   101     2  6.71  38.3  2486  3218  7663  1538 13367  5704  1803 0.573     0     0 0.000 0.000 0.000  4.93  0.00 270.0  0.00  0.00 0.000  0.65  3.03  3.56  3.05  1.30  0.17  0.13  0.00  0.00  0.00  0.00
 1988 208   207   102     2  6.70  39.0  2481  3255  7806  1553 13542  5736  1857 0.576     0     0 0.000 0.000 0.000  4.97  0.00 270.0  0.00  0.00 0.000  0.65  3.08  3.60  3.07  1.31  0.17  0.13  0.00  0.00  0.00  0.00
 1988 209   208   103     2  6.64  39.4  2460  3280  7885  1564 13625  5740  1911 0.579     0     0 0.000 0.000 0.000  5.00  0.00 270.0  0.00  0.00 0.000  0.65  3.12  3.63  3.08  1.32  0.17  0.13  0.00  0.00  0.00  0.00
 1988 210   209   104     2  6.64  40.0  2461  3319  7995  1581 13775  5780  1963 0.580     0     0 0.000 0.000 0.000  4.99  0.00 270.0  0.00  0.00 0.000  0.65  3.14  3.64  3.09  1.32  0.18  0.14  0.00  0.00  0.00  0.00
 1988 211   210   105     2  6.64  40.4  2461  3358  8083  1597 13902  5819  2015 0.581     0     0 0.000 0.000 0.000  4.99  0.00 270.0  0.00  0.00 0.000  0.65  3.15  3.67  3.12  1.33  0.18  0.14  0.00  0.00  0.00  0.00
 1988 212   211   106     2  6.63  41.1  2455  3392  8214  1612 14061  5847  2067 0.584     0     0 0.000 0.000 0.000  4.99  0.00 270.0  0.00  0.00 0.000  0.65  3.15  3.69  3.14  1.34  0.18  0.14  0.00  0.00  0.00  0.00
 1988 213   212   107     2  6.49  41.8  2403  3392  8361  1612 14156  5795  2119 0.591     0     0 0.000 0.000 0.000  5.01  0.00 270.0  0.00  0.00 0.000  0.65  3.15  3.71  3.17  1.35  0.19  0.15  0.00  0.00  0.00  0.00
 1988 214   213   108     2  6.36  42.8  2355  3392  8565  1612 14313  5747  2167 0.598     0     0 0.000 0.000 0.000  5.03  0.00 270.0  0.00  0.00 0.000  0.65  3.15  3.71  3.17  1.35  0.19  0.15  0.00  0.00  0.00  0.00
 1988 215   214   109     2  6.24  44.0  2311  3392  8790  1612 14494  5703  2211 0.606     0     0 0.000 0.000 0.000  5.03  0.00 270.0  0.00  0.00 0.000  0.65  3.15  3.71  3.17  1.35  0.19  0.15  0.00  0.00  0.00  0.00
 1988 216   215   110     2  6.13  45.1  2269  3392  9015  1612 14677  5661  2252 0.614     0     0 0.000 0.000 0.000  5.01  0.00 270.0  0.00  0.00 0.000  0.65  3.15  3.71  3.17  1.35  0.19  0.15  0.00  0.00  0.00  0.00
 1988 217   216   111     2  6.02  46.2  2231  3392  9240  1612 14864  5623  2291 0.622     0     0 0.000 0.000 0.000  4.99  0.00 270.0  0.00  0.00 0.000  0.65  3.15  3.71  3.17  1.35  0.19  0.15  0.00  0.00  0.00  0.00
 1988 218   217   112     2  5.93  47.1  2195  3392  9414  1612 15001  5587  2327 0.628     0     0 0.000 0.000 0.000  4.99  0.00 270.0  0.00  0.00 0.000  0.65  3.15  3.71  3.17  1.35  0.19  0.15  0.00  0.00  0.00  0.00
 1988 219   218   113     2  5.83  48.2  2161  3392  9639  1612 15192  5553  2361 0.634     0     0 0.000 0.000 0.000  4.98  0.00 270.0  0.00  0.00 0.000  0.65  3.15  3.71  3.17  1.35  0.19  0.15  0.00  0.00  0.00  0.00
 1988 220   219   114     2  5.75  49.3  2129  3392  9864  1612 15385  5521  2393 0.641     0     0 0.000 0.000 0.000  4.96  0.00 270.0  0.00  0.00 0.000  0.65  3.15  3.71  3.17  1.35  0.19  0.15  0.00  0.00  0.00  0.00
 1988 221   220   115     2  5.67  50.4  2099  3392 10089  1612 15580  5491  2422 0.648     0     0 0.000 0.000 0.000  4.93  0.00 270.0  0.00  0.00 0.000  0.65  3.15  3.71  3.17  1.35  0.19  0.15  0.00  0.00  0.00  0.00
 1988 222   221   116     2  5.59  51.2  2071  3392 10249  1612 15713  5463  2450 0.652     0     0 0.000 0.000 0.000  4.95  0.00 270.0  0.00  0.00 0.000  0.65  3.15  3.71  3.17  1.35  0.19  0.15  0.00  0.00  0.00  0.00
 1988 223   222   117     2  5.52  52.2  2045  3392 10436  1612 15874  5437  2477 0.657     0     0 0.000 0.000 0.000  4.93  0.00 270.0  0.00  0.00 0.000  0.65  3.15  3.71  3.17  1.35  0.19  0.15  0.00  0.00  0.00  0.00
 1988 224   223   118     2  5.45  53.3  2020  3392 10653  1612 16065  5412  2502 0.663     0     0 0.000 0.000 0.000  4.90  0.00 270.0  0.00  0.00 0.000  0.65  3.15  3.71  3.17  1.35  0.19  0.15  0.00  0.00  0.00  0.00
 1988 225   224   119     2  5.38  54.2  1994  3392 10846  1612 16232  5386  2528 0.668     0     0 0.000 0.000 0.000  4.89  0.00 270.0  0.00  0.00 0.000  0.65  3.15  3.71  3.17  1.35  0.19  0.15  0.00  0.00  0.00  0.00
 1988 226   225   120     2  5.31  55.3  1968  3392 11070  1612 16430  5360  2554 0.674     0     0 0.000 0.000 0.000  4.87  0.00 270.0  0.00  0.00 0.000  0.65  3.15  3.71  3.17  1.35  0.19  0.15  0.00  0.00  0.00  0.00
 1988 227   226   121     2  5.24  56.5  1942  3392 11295  1612 16629  5334  2580 0.679     0     0 0.000 0.000 0.000  4.84  0.00 270.0  0.00  0.00 0.000  0.65  3.15  3.71  3.17  1.35  0.19  0.15  0.00  0.00  0.00  0.00
 1988 228   227   122     2  5.17  57.6  1915  3392 11520  1612 16827  5307  2606 0.685     0     0 0.000 0.000 0.000  4.81  0.00 270.0  0.00  0.00 0.000  0.65  3.15  3.71  3.17  1.35  0.19  0.15  0.00  0.00  0.00  0.00
 1988 229   228   123     2  5.10  58.7  1889  3392 11745  1612 17026  5281  2633 0.690     0     0 0.000 0.000 0.000  4.79  0.00 270.0  0.00  0.00 0.000  0.65  3.15  3.71  3.17  1.35  0.19  0.15  0.00  0.00  0.00  0.00
 1988 230   229   124     2  5.03  59.8  1862  3392 11970  1612 17224  5254  2660 0.695     0     0 0.000 0.000 0.000  4.77  0.00 270.0  0.00  0.00 0.000  0.65  3.15  3.71  3.17  1.35  0.19  0.15  0.00  0.00  0.00  0.00
 1988 231   230   125     2  4.95  61.0  1835  3392 12195  1612 17422  5227  2687 0.700     0     0 0.000 0.000 0.000  4.75  0.00 270.0  0.00  0.00 0.000  0.65  3.15  3.71  3.17  1.35  0.19  0.15  0.00  0.00  0.00  0.00
 1988 232   231   126     2  4.88  62.1  1807  3392 12420  1612 17619  5199  2715 0.705     0     0 0.000 0.000 0.000  4.72  0.00 270.0  0.00  0.00 0.000  0.65  3.15  3.71  3.17  1.35  0.19  0.15  0.00  0.00  0.00  0.00
 1988 233   232   127     2  4.81  63.2  1780  3392 12645  1612 17817  5172  2742 0.710     0     0 0.000 0.000 0.000  4.69  0.00 270.0  0.00  0.00 0.000  0.65  3.15  3.71  3.17  1.35  0.19  0.15  0.00  0.00  0.00  0.00
 1988 234   233   128     2  4.73  64.3  1752  3392 12870  1612 18014  5144  2770 0.714     0     0 0.000 0.000 0.000  4.68  0.00 270.0  0.00  0.00 0.000  0.65  3.15  3.71  3.17  1.35  0.19  0.15  0.00  0.00  0.00  0.00
 1988 235   234   129     2  4.65  65.5  1724  3392 13095  1612 18211  5116  2798 0.719     0     0 0.000 0.000 0.000  4.65  0.00 270.0  0.00  0.00 0.000  0.65  3.15  3.71  3.17  1.35  0.19  0.15  0.00  0.00  0.00  0.00
 1988 236   235   130     2  4.58  66.6  1696  3392 13320  1612 18408  5088  2826 0.724     0     0 0.000 0.000 0.000  4.62  0.00 270.0  0.00  0.00 0.000  0.65  3.15  3.71  3.17  1.35  0.19  0.15  0.00  0.00  0.00  0.00
 1988 237   236   131     2  4.50  67.6  1667  3392 13524  1612 18584  5059  2854 0.728     0     0 0.000 0.000 0.000  4.59  0.00 270.0  0.00  0.00 0.000  0.65  3.15  3.71  3.17  1.35  0.19  0.15  0.00  0.00  0.00  0.00
 1988 238   237   132     2  4.43  68.3  1639  3392 13660  1612 18692  5031  2883 0.731     0     0 0.000 0.000 0.000  4.58  0.00 270.0  0.00  0.00 0.000  0.65  3.15  3.71  3.17  1.35  0.19  0.15  0.00  0.00  0.00  0.00
 1988 239   238   133     2  4.35  69.4  1611  3392 13885  1612 18889  5003  2911 0.735     0     0 0.000 0.000 0.000  4.56  0.00 270.0  0.00  0.00 0.000  0.65  3.15  3.71  3.17  1.35  0.19  0.15  0.00  0.00  0.00  0.00
 1988 240   239   134     2  4.27  70.6  1582  3392 14110  1612 19085  4974  2940 0.739     0     0 0.000 0.000 0.000  4.52  0.00 270.0  0.00  0.00 0.000  0.65  3.15  3.71  3.17  1.35  0.19  0.15  0.00  0.00  0.00  0.00
 1988 241   240   135     2  4.19  71.6  1553  3392 14322  1612 19268  4945  2969 0.743     0     0 0.000 0.000 0.000  4.50  0.00 270.0  0.00  0.00 0.000  0.65  3.15  3.71  3.17  1.35  0.19  0.15  0.00  0.00  0.00  0.00
 1988 242   241   136     2  4.12  72.6  1524  3392 14527  1612 19444  4916  2997 0.747     0     0 0.000 0.000 0.000  4.50  0.00 270.0  0.00  0.00 0.000  0.65  3.15  3.71  3.17  1.35  0.19  0.15  0.00  0.00  0.00  0.00
 1988 243   242   137     2  4.04  73.8  1496  3392 14752  1612 19640  4888  3026 0.751     0     0 0.000 0.000 0.000  4.47  0.00 270.0  0.00  0.00 0.000  0.65  3.15  3.71  3.17  1.35  0.19  0.15  0.00  0.00  0.00  0.00
 1988 244   243   138     2  3.96  74.9  1467  3392 14977  1612 19836  4859  3055 0.755     0     0 0.000 0.000 0.000  4.44  0.00 270.0  0.00  0.00 0.000  0.65  3.15  3.71  3.17  1.35  0.19  0.15  0.00  0.00  0.00  0.00
 1988 245   244   139     2  3.88  76.0  1438  3392 15202  1612 20032  4830  3084 0.759     0     0 0.000 0.000 0.000  4.41  0.00 270.0  0.00  0.00 0.000  0.65  3.15  3.71  3.17  1.35  0.19  0.15  0.00  0.00  0.00  0.00
 1988 246   245   140     2  3.80  76.9  1409  3392 15382  1612 20183  4801  3113 0.762     0     0 0.000 0.000 0.000  4.39  0.00 270.0  0.00  0.00 0.000  0.65  3.15  3.71  3.17  1.35  0.19  0.15  0.00  0.00  0.00  0.00
 1988 247   246   141     2  3.73  78.0  1380  3392 15607  1612 20379  4772  3142 0.766     0     0 0.000 0.000 0.000  4.35  0.00 270.0  0.00  0.00 0.000  0.65  3.15  3.71  3.17  1.35  0.19  0.15  0.00  0.00  0.00  0.00
 1988 248   247   142     2  3.65  79.2  1351  3392 15832  1612 20575  4743  3171 0.769     0     0 0.000 0.000 0.000  4.31  0.00 270.0  0.00  0.00 0.000  0.65  3.15  3.71  3.17  1.35  0.19  0.15  0.00  0.00  0.00  0.00
 1988 249   248   143     2  3.57  80.3  1321  3392 16057  1612 20770  4713  3201 0.773     0     0 0.000 0.000 0.000  4.28  0.00 270.0  0.00  0.00 0.000  0.65  3.15  3.71  3.17  1.35  0.19  0.15  0.00  0.00  0.00  0.00
 1988 250   249   144     2  3.49  81.4  1292  3392 16282  1612 20966  4684  3230 0.777     0     0 0.000 0.000 0.000  4.25  0.00 270.0  0.00  0.00 0.000  0.65  3.15  3.71  3.17  1.35  0.19  0.15  0.00  0.00  0.00  0.00
 1988 251   250   145     2  3.41  82.5  1263  3392 16507  1612 21162  4655  3259 0.780     0     0 0.000 0.000 0.000  4.21  0.00 270.0  0.00  0.00 0.000  0.65  3.15  3.71  3.17  1.35  0.19  0.15  0.00  0.00  0.00  0.00
 1988 252   251   146     2  3.33  83.6  1233  3392 16718  1612 21344  4625  3288 0.783     0     0 0.000 0.000 0.000  4.17  0.00 270.0  0.00  0.00 0.000  0.65  3.15  3.71  3.17  1.35  0.19  0.15  0.00  0.00  0.00  0.00
 1988 253   252   147     2  3.25  84.7  1204  3392 16943  1612 21539  4596  3318 0.787     0     0 0.000 0.000 0.000  4.14  0.00 270.0  0.00  0.00 0.000  0.65  3.15  3.71  3.17  1.35  0.19  0.15  0.00  0.00  0.00  0.00
 1988 254   253   148     2  3.17  85.8  1175  3392 17168  1612 21735  4567  3347 0.790     0     0 0.000 0.000 0.000  4.10  0.00 270.0  0.00  0.00 0.000  0.65  3.15  3.71  3.17  1.35  0.19  0.15  0.00  0.00  0.00  0.00
 1988 255   254   149     2  3.09  87.0  1146  3392 17393  1612 21931  4538  3376 0.793     0     0 0.000 0.000 0.000  4.06  0.00 270.0  0.00  0.00 0.000  0.65  3.15  3.71  3.17  1.35  0.19  0.15  0.00  0.00  0.00  0.00
 1988 256   255   150     2  3.01  88.1  1117  3392 17618  1612 22127  4509  3405 0.796     0     0 0.000 0.000 0.000  4.02  0.00 270.0  0.00  0.00 0.000  0.65  3.15  3.71  3.17  1.35  0.19  0.15  0.00  0.00  0.00  0.00
 1988 257   256   151     2  2.94  89.2  1087  3392 17843  1612 22323  4479  3434 0.799     0     0 0.000 0.000 0.000  3.98  0.00 270.0  0.00  0.00 0.000  0.65  3.15  3.71  3.17  1.35  0.19  0.15  0.00  0.00  0.00  0.00
 1988 258   257   152     2  2.86  90.1  1058  3392 18024  1612 22475  4450  3463 0.802     0     0 0.000 0.000 0.000  3.95  0.00 270.0  0.00  0.00 0.000  0.65  3.15  3.71  3.17  1.35  0.19  0.15  0.00  0.00  0.00  0.00
 1988 259   258   153     2  2.78  91.0  1030  3392 18202  1612 22624  4422  3492 0.805     0     0 0.000 0.000 0.000  3.93  0.00 270.0  0.00  0.00 0.000  0.65  3.15  3.71  3.17  1.35  0.19  0.15  0.00  0.00  0.00  0.00
 1988 260   259   154     2  2.70  92.0  1001  3392 18398  1612 22792  4393  3521 0.807     0     0 0.000 0.000 0.000  3.89  0.00 270.0  0.00  0.00 0.000  0.65  3.15  3.71  3.17  1.35  0.19  0.15  0.00  0.00  0.00  0.00
 1988 261   260   155     2  2.63  93.1   973  3392 18614  1612 22979  4365  3549 0.810     0     0 0.000 0.000 0.000  3.85  0.00 270.0  0.00  0.00 0.000  0.65  3.15  3.71  3.17  1.35  0.19  0.15  0.00  0.00  0.00  0.00
 1988 262   261   156     2  2.55  94.2   945  3392 18833  1612 23171  4337  3577 0.813     0     0 0.000 0.000 0.000  3.80  0.00 270.0  0.00  0.00 0.000  0.65  3.15  3.71  3.17  1.35  0.19  0.15  0.00  0.00  0.00  0.00
 1988 263   262   157     2  2.48  95.3   917  3392 19058  1612 23368  4309  3605 0.816     0     0 0.000 0.000 0.000  3.76  0.00 270.0  0.00  0.00 0.000  0.65  3.15  3.71  3.17  1.35  0.19  0.15  0.00  0.00  0.00  0.00
 1988 264   263   158     2  2.40  96.4   889  3392 19283  1612 23565  4281  3633 0.818     0     0 0.000 0.000 0.000  3.71  0.00 270.0  0.00  0.00 0.000  0.65  3.15  3.71  3.17  1.35  0.19  0.15  0.00  0.00  0.00  0.00
 1988 265   264   159     2  2.33  97.5   861  3392 19508  1612 23762  4253  3661 0.821     0     0 0.000 0.000 0.000  3.66  0.00 270.0  0.00  0.00 0.000  0.65  3.15  3.71  3.17  1.35  0.19  0.15  0.00  0.00  0.00  0.00
 1988 266   265   160     2  2.25  98.7   833  3392 19733  1612 23959  4225  3688 0.824     0     0 0.000 0.000 0.000  3.63  0.00 270.0  0.00  0.00 0.000  0.65  3.15  3.71  3.17  1.35  0.19  0.15  0.00  0.00  0.00  0.00
 1988 267   266   161     2  2.18  99.8   806  3392 19958  1612 24157  4198  3716 0.826     0     0 0.000 0.000 0.000  3.59  0.00 270.0  0.00  0.00 0.000  0.65  3.15  3.71  3.17  1.35  0.19  0.15  0.00  0.00  0.00  0.00
 1988 268   267   162     2  2.10 100.9   779  3392 20173  1612 24344  4171  3743 0.829     0     0 0.000 0.000 0.000  3.54  0.00 270.0  0.00  0.00 0.000  0.65  3.15  3.71  3.17  1.35  0.19  0.15  0.00  0.00  0.00  0.00
 1988 269   268   163     2  2.03 101.9   752  3392 20384  1612 24528  4144  3770 0.831     0     0 0.000 0.000 0.000  3.49  0.00 270.0  0.00  0.00 0.000  0.65  3.15  3.71  3.17  1.35  0.19  0.15  0.00  0.00  0.00  0.00
 1988 270   269   164     2  1.96 103.0   725  3392 20609  1612 24727  4117  3797 0.833     0     0 0.000 0.000 0.000  3.44  0.00 270.0  0.00  0.00 0.000  0.65  3.15  3.71  3.17  1.35  0.19  0.15  0.00  0.00  0.00  0.00
 1988 271   270   165     2  1.89 104.2   699  3392 20834  1612 24925  4091  3823 0.836     0     0 0.000 0.000 0.000  3.38  0.00 270.0  0.00  0.00 0.000  0.65  3.15  3.71  3.17  1.35  0.19  0.15  0.00  0.00  0.00  0.00
 1988 272   271   166     2  1.82 105.3   672  3392 21059  1612 25124  4064  3849 0.838     0     0 0.000 0.000 0.000  3.33  0.00 270.0  0.00  0.00 0.000  0.65  3.15  3.71  3.17  1.35  0.19  0.15  0.00  0.00  0.00  0.00
 1988 273   272   167     2  1.74 106.4   646  3392 21284  1612 25323  4038  3876 0.841     0     0 0.000 0.000 0.000  3.27  0.00 270.0  0.00  0.00 0.000  0.65  3.15  3.71  3.17  1.35  0.19  0.15  0.00  0.00  0.00  0.00
 1988 274   273   168     5  1.74 106.4   646  3392 21284  1612 25323  4038  3876 0.841     0     0 0.000 0.000 0.000  3.27  0.00 270.0  0.00  0.00 0.000  0.65  3.15  3.71  3.17  1.35  0.19  0.15  0.00  0.00  0.00  0.00

*RUN   2        :  NASA-PIX Field #2       
 MODEL          : PTSUB020 - POTATO    
 EXPERIMENT     : OSBO8801 PT     OSBO8801PT Oregon: Hermiston commercial data, 
 TREATMENT  2   :  NASA-PIX Field #2       

! YR       Days  Days  Grow       Fresh                Dry Weight                           Pod      Phot. Grow       Leaf Shell   Spec    Canopy          Root  ³                Root Length Density                     ³
!   and   after after Stage  LAI  Yield  Leaf  Stem Tuber  Root  Crop  Tops DLeaf   HI   Wgt.   No.    Water     Nit.   Nit -ing   Leaf  Hght  Brdth      Depth  ³                cm3/cm3   of soil                       ³
!     DOY   sim plant             Mg/Ha  ³<--------------- kg/Ha --------------->³      Kg/Ha        ³<Stress (0-1)>³    %     %   Area    m     m           m   ³<------------------------------------------------------>³
@YEAR DOY   DAS   DAP  GSTD  LAID  UYAD  LWAD  SWAD  UWAD  RWAD  TWAD  CWAD  DWAD  HIAD  EWAD  E#AD  WSPD  WSGD  NSTD  LN%D  SH%D  SLAD  CHTD  CWID  EWSD  RDPD  RL1D  RL2D  RL3D  RL4D  RL5D  RL6D  RL7D  RL8D  RL9D  RL10
 1988 089    88     0     7  0.00   0.0     0     0     0     0     0     0     0 0.000     0     0 0.000 0.000 0.000  0.00  0.00   0.0  0.00  0.00 0.000  0.00  0.00  0.00  0.00  0.00  0.00  0.00  0.00  0.00  0.00  0.00
 1988 090    89     1     7  0.00   0.0     0     0     0     0     0     0     0 0.000     0     0 0.000 0.000 0.000  0.00  0.00   0.0  0.00  0.00 0.000  0.00  0.00  0.00  0.00  0.00  0.00  0.00  0.00  0.00  0.00  0.00
 1988 091    90     2     7  0.00   0.0     0     0     0     1     0     0     0 0.000     0     0 0.000 0.000 0.000  0.00  0.00   0.0  0.00  0.00 0.000  0.10  0.00  0.00  0.00  0.00  0.00  0.00  0.00  0.00  0.00  0.00
 1988 092    91     3     7  0.00   0.0     0     0     0     2     0     0     0 0.000     0     0 0.000 0.000 0.000  0.00  0.00   0.0  0.00  0.00 0.000  0.10  0.00  0.00  0.00  0.00  0.00  0.00  0.00  0.00  0.00  0.00
 1988 093    92     4     7  0.00   0.0     0     0     0     2     0     0     0 0.000     0     0 0.000 0.000 0.000  0.00  0.00   0.0  0.00  0.00 0.000  0.10  0.01  0.01  0.00  0.00  0.00  0.00  0.00  0.00  0.00  0.00
 1988 094    93     5     7  0.00   0.0     0     0     0     3     0     0     0 0.000     0     0 0.000 0.000 0.000  0.00  0.00   0.0  0.00  0.00 0.000  0.10  0.01  0.01  0.00  0.00  0.00  0.00  0.00  0.00  0.00  0.00
 1988 095    94     6     7  0.00   0.0     0     0     0     4     0     0     0 0.000     0     0 0.000 0.000 0.000  0.00  0.00   0.0  0.00  0.00 0.000  0.10  0.02  0.02  0.00  0.00  0.00  0.00  0.00  0.00  0.00  0.00
 1988 096    95     7     7  0.00   0.0     0     0     0     5     0     0     0 0.000     0     0 0.000 0.000 0.000  0.00  0.00   0.0  0.00  0.00 0.000  0.10  0.02  0.02  0.00  0.00  0.00  0.00  0.00  0.00  0.00  0.00
 1988 097    96     8     7  0.00   0.0     0     0     0     6     0     0     0 0.000     0     0 0.000 0.000 0.000  0.00  0.00   0.0  0.00  0.00 0.000  0.10  0.02  0.03  0.00  0.00  0.00  0.00  0.00  0.00  0.00  0.00
 1988 098    97     9     7  0.00   0.0     0     0     0     6     0     0     0 0.000     0     0 0.000 0.000 0.000  0.00  0.00   0.0  0.00  0.00 0.000  0.10  0.02  0.03  0.00  0.00  0.00  0.00  0.00  0.00  0.00  0.00
 1988 099    98    10     7  0.00   0.0     0     0     0     7     0     0     0 0.000     0     0 0.000 0.000 0.000  0.00  0.00   0.0  0.00  0.00 0.000  0.10  0.02  0.04  0.00  0.00  0.00  0.00  0.00  0.00  0.00  0.00
 1988 100    99    11     7  0.00   0.0     0     0     0     8     0     0     0 0.000     0     0 0.000 0.000 0.000  0.00  0.00   0.0  0.00  0.00 0.000  0.10  0.02  0.04  0.00  0.00  0.00  0.00  0.00  0.00  0.00  0.00
 1988 101   100    12     7  0.00   0.0     0     0     0     9     0     0     0 0.000     0     0 0.000 0.000 0.000  0.00  0.00   0.0  0.00  0.00 0.000  0.10  0.02  0.05  0.00  0.00  0.00  0.00  0.00  0.00  0.00  0.00
 1988 102   101    13     7  0.00   0.0     0     0     0    10     0     0     0 0.000     0     0 0.000 0.000 0.000  0.00  0.00   0.0  0.00  0.00 0.000  0.10  0.02  0.05  0.00  0.00  0.00  0.00  0.00  0.00  0.00  0.00
 1988 103   102    14     7  0.00   0.0     0     0     0    11     0     0     0 0.000     0     0 0.000 0.000 0.000  0.00  0.00   0.0  0.00  0.00 0.000  0.10  0.02  0.06  0.00  0.00  0.00  0.00  0.00  0.00  0.00  0.00
 1988 104   103    15     7  0.00   0.0     0     0     0    12     0     0     0 0.000     0     0 0.000 0.000 0.000  0.00  0.00   0.0  0.00  0.00 0.000  0.10  0.02  0.07  0.00  0.00  0.00  0.00  0.00  0.00  0.00  0.00
 1988 105   104    16     7  0.00   0.0     0     0     0    13     0     0     0 0.000     0     0 0.000 0.000 0.000  0.00  0.00   0.0  0.00  0.00 0.000  0.10  0.02  0.07  0.00  0.00  0.00  0.00  0.00  0.00  0.00  0.00
 1988 106   105    17     7  0.00   0.0     0     0     0    14     0     0     0 0.000     0     0 0.000 0.000 0.000  0.00  0.00   0.0  0.00  0.00 0.000  0.10  0.03  0.08  0.00  0.00  0.00  0.00  0.00  0.00  0.00  0.00
 1988 107   106    18     7  0.00   0.0     0     0     0    15     0     0     0 0.000     0     0 0.000 0.000 0.000  0.00  0.00   0.0  0.00  0.00 0.000  0.10  0.04  0.08  0.00  0.00  0.00  0.00  0.00  0.00  0.00  0.00
 1988 108   107    19     7  0.00   0.0     0     0     0    16     0     0     0 0.000     0     0 0.000 0.000 0.000  0.00  0.00   0.0  0.00  0.00 0.000  0.10  0.04  0.08  0.00  0.00  0.00  0.00  0.00  0.00  0.00  0.00
 1988 109   108    20     7  0.00   0.0     0     0     0    17     0     0     0 0.000     0     0 0.000 0.000 0.000  0.00  0.00   0.0  0.00  0.00 0.000  0.10  0.05  0.09  0.00  0.00  0.00  0.00  0.00  0.00  0.00  0.00
 1988 110   109    21     7  0.00   0.0     0     0     0    18     0     0     0 0.000     0     0 0.000 0.000 0.000  0.00  0.00   0.0  0.00  0.00 0.000  0.10  0.06  0.09  0.00  0.00  0.00  0.00  0.00  0.00  0.00  0.00
 1988 111   110    22     7  0.00   0.0     0     0     0    19     0     0     0 0.000     0     0 0.000 0.000 0.000  0.00  0.00   0.0  0.00  0.00 0.000  0.10  0.06  0.10  0.00  0.00  0.00  0.00  0.00  0.00  0.00  0.00
 1988 112   111    23     7  0.00   0.0     0     0     0    19     0     0     0 0.000     0     0 0.000 0.000 0.000  0.00  0.00   0.0  0.00  0.00 0.000  0.10  0.07  0.10  0.00  0.00  0.00  0.00  0.00  0.00  0.00  0.00
 1988 113   112    24     7  0.00   0.0     0     0     0    20     0     0     0 0.000     0     0 0.000 0.000 0.000  0.00  0.00   0.0  0.00  0.00 0.000  0.10  0.07  0.10  0.00  0.00  0.00  0.00  0.00  0.00  0.00  0.00
 1988 114   113    25     7  0.00   0.0     0     0     0    21     0     0     0 0.000     0     0 0.000 0.000 0.000  0.00  0.00   0.0  0.00  0.00 0.000  0.10  0.08  0.11  0.00  0.00  0.00  0.00  0.00  0.00  0.00  0.00
 1988 115   114    26     1  0.02   0.0     6     6     0    23    13    12     0 0.038     0     0 0.000 0.000 0.000  4.90  0.00 270.0  0.00  0.00 0.000  0.10  0.08  0.11  0.00  0.00  0.00  0.00  0.00  0.00  0.00  0.00
 1988 116   115    27     1  0.02   0.0     8     7     0    24    16    15     0 0.030     0     0 0.000 0.000 0.000  5.26  0.00 270.0  0.00  0.00 0.000  0.11  0.08  0.12  0.00  0.00  0.00  0.00  0.00  0.00  0.00  0.00
 1988 117   116    28     1  0.03   0.0    10     9     0    26    20    19     0 0.024     0     0 0.000 0.000 0.000  5.56  0.00 270.0  0.00  0.00 0.000  0.12  0.08  0.13  0.00  0.00  0.00  0.00  0.00  0.00  0.00  0.00
 1988 118   117    29     1  0.04   0.0    14    12     0    29    27    26     0 0.018     0     0 0.000 0.000 0.000  5.34  0.00 270.0  0.00  0.00 0.000  0.12  0.08  0.15  0.00  0.00  0.00  0.00  0.00  0.00  0.00  0.00
 1988 119   118    30     1  0.05   0.0    19    15     0    32    34    34     0 0.014     0     0 0.000 0.000 0.000  5.19  0.00 270.0  0.00  0.00 0.000  0.13  0.08  0.17  0.00  0.00  0.00  0.00  0.00  0.00  0.00  0.00
 1988 120   119    31     1  0.06   0.0    23    19     0    35    43    42     0 0.011     0     0 0.000 0.000 0.000  5.07  0.00 270.0  0.00  0.00 0.000  0.15  0.10  0.19  0.00  0.00  0.00  0.00  0.00  0.00  0.00  0.00
 1988 121   120    32     1  0.08   0.0    28    22     0    38    51    50     0 0.009     0     0 0.000 0.000 0.000  5.03  0.00 270.0  0.00  0.00 0.000  0.15  0.12  0.21  0.00  0.00  0.00  0.00  0.00  0.00  0.00  0.00
 1988 122   121    33     1  0.09   0.0    33    26     0    41    59    59     0 0.008     0     0 0.000 0.000 0.000  4.94  0.00 270.0  0.00  0.00 0.000  0.16  0.13  0.23  0.00  0.00  0.00  0.00  0.00  0.00  0.00  0.00
 1988 123   122    34     1  0.10   0.0    38    30     0    45    68    68     0 0.007     0     0 0.000 0.000 0.000  4.86  0.00 270.0  0.00  0.00 0.000  0.17  0.14  0.25  0.00  0.00  0.00  0.00  0.00  0.00  0.00  0.00
 1988 124   123    35     1  0.12   0.0    43    34     0    48    77    77     0 0.006     0     0 0.000 0.000 0.000  4.79  0.00 270.0  0.00  0.00 0.000  0.17  0.14  0.28  0.01  0.00  0.00  0.00  0.00  0.00  0.00  0.00
 1988 125   124    36     1  0.13   0.0    49    38     0    51    87    87     0 0.006     0     0 0.000 0.000 0.000  4.72  0.00 270.0  0.00  0.00 0.000  0.18  0.14  0.30  0.01  0.00  0.00  0.00  0.00  0.00  0.00  0.00
 1988 126   125    37     1  0.15   0.0    54    42     0    54    96    96     0 0.005     0     0 0.000 0.000 0.000  4.66  0.00 270.0  0.00  0.00 0.000  0.18  0.14  0.32  0.02  0.00  0.00  0.00  0.00  0.00  0.00  0.00
 1988 127   126    38     1  0.19   0.0    69    53     0    63   123   122     0 0.004     0     0 0.000 0.000 0.000  4.65  0.00 270.0  0.00  0.00 0.000  0.19  0.15  0.34  0.02  0.00  0.00  0.00  0.00  0.00  0.00  0.00
 1988 128   127    39     1  0.23   0.0    85    65     0    71   150   150     0 0.003     0     0 0.000 0.091 0.000  4.90  0.00 270.0  0.00  0.00 0.000  0.20  0.19  0.38  0.03  0.00  0.00  0.00  0.00  0.00  0.00  0.00
 1988 129   128    40     1  0.27   0.0   100    76     0    79   177   176     0 0.003     0     0 0.000 0.000 0.000  5.05  0.00 270.0  0.00  0.00 0.000  0.21  0.20  0.42  0.05  0.00  0.00  0.00  0.00  0.00  0.00  0.00
 1988 130   129    41     1  0.32   0.0   119    91     0    88   210   210     0 0.002     0     0 0.000 0.205 0.000  4.93  0.00 270.0  0.00  0.00 0.000  0.22  0.20  0.46  0.07  0.00  0.00  0.00  0.00  0.00  0.00  0.00
 1988 131   130    42     1  0.37   0.0   137   104     0    97   242   241     1 0.002     0     0 0.000 0.233 0.000  4.82  0.00 270.0  0.00  0.00 0.000  0.23  0.19  0.51  0.09  0.00  0.00  0.00  0.00  0.00  0.00  0.00
 1988 132   131    43     1  0.42   0.0   154   117     0   104   271   271     1 0.002     0     0 0.000 0.210 0.000  4.73  0.00 270.0  0.00  0.00 0.000  0.25  0.19  0.55  0.12  0.00  0.00  0.00  0.00  0.00  0.00  0.00
 1988 133   132    44     1  0.52   0.0   193   147     0   120   340   340     1 0.001     0     0 0.000 0.223 0.000  4.67  0.00 270.0  0.00  0.00 0.000  0.26  0.21  0.57  0.14  0.00  0.00  0.00  0.00  0.00  0.00  0.00
 1988 134   133    45     1  0.62   0.0   229   174     0   134   404   403     1 0.001     0     0 0.000 0.000 0.000  4.83  0.00 270.0  0.00  0.00 0.000  0.27  0.26  0.63  0.18  0.00  0.00  0.00  0.00  0.00  0.00  0.00
 1988 135   134    46     1  0.73   0.0   272   206     0   151   479   478     1 0.001     0     0 0.000 0.077 0.000  4.73  0.00 270.0  0.00  0.00 0.000  0.28  0.30  0.68  0.22  0.00  0.00  0.00  0.00  0.00  0.00  0.00
 1988 136   135    47     1  0.84   0.0   310   235     0   167   545   545     2 0.001     0     0 0.000 0.272 0.000  4.64  0.00 270.0  0.00  0.00 0.000  0.30  0.30  0.74  0.28  0.00  0.00  0.00  0.00  0.00  0.00  0.00
 1988 137   136    48     1  0.94   0.0   348   264     0   182   612   612     2 0.001     0     0 0.000 0.000 0.000  4.56  0.00 270.0  0.00  0.00 0.000  0.31  0.30  0.80  0.34  0.00  0.00  0.00  0.00  0.00  0.00  0.00
 1988 138   137    49     1  1.14   0.0   421   319     0   212   741   740     3 0.001     0     0 0.000 0.132 0.000  4.55  0.00 270.0  0.00  0.00 0.000  0.32  0.34  0.84  0.38  0.00  0.00  0.00  0.00  0.00  0.00  0.00
 1988 139   138    50     1  1.35   0.0   501   379     0   244   881   880     4 0.001     0     0 0.000 0.000 0.000  4.52  0.00 270.0  0.00  0.00 0.000  0.33  0.42  0.93  0.47  0.01  0.00  0.00  0.00  0.00  0.00  0.00
 1988 140   139    51     1  1.55   0.0   574   435     0   274  1010  1009     5 0.000     0     0 0.000 0.000 0.000  4.45  0.00 270.0  0.00  0.00 0.000  0.34  0.50  1.03  0.56  0.02  0.00  0.00  0.00  0.00  0.00  0.00
 1988 141   140    52     1  1.71   0.0   635   482     0   298  1117  1117     6 0.000     0     0 0.000 0.000 0.000  4.38  0.00 270.0  0.00  0.00 0.000  0.35  0.50  1.13  0.66  0.03  0.00  0.00  0.00  0.00  0.00  0.00
 1988 142   141    53     1  2.02   0.0   750   569     0   345  1319  1319     7 0.000     0     0 0.000 0.190 0.000  4.35  0.00 270.0  0.00  0.00 0.000  0.36  0.54  1.21  0.73  0.04  0.00  0.00  0.00  0.00  0.00  0.00
 1988 143   142    54     1  2.30   0.0   853   647     0   387  1501  1500     9 0.000     0     0 0.000 0.000 0.000  4.30  0.00 270.0  0.00  0.00 0.000  0.38  0.63  1.35  0.86  0.07  0.00  0.00  0.00  0.00  0.00  0.00
 1988 144   143    55     1  2.57   0.0   951   722     0   427  1674  1673    11 0.000     0     0 0.000 0.000 0.000  4.25  0.00 270.0  0.00  0.00 0.000  0.39  0.74  1.46  0.97  0.10  0.00  0.00  0.00  0.00  0.00  0.00
 1988 145   144    56     1  2.78   0.0  1029   782     0   459  1812  1811    13 0.000     0     0 0.000 0.000 0.000  4.19  0.00 270.0  0.00  0.00 0.000  0.40  0.79  1.58  1.08  0.13  0.00  0.00  0.00  0.00  0.00  0.00
 1988 146   145    57     1  3.20   0.0  1186   902     0   522  2088  2088    15 0.000     0     0 0.000 0.000 0.000  4.16  0.00 270.0  0.00  0.00 0.000  0.41  0.85  1.67  1.16  0.16  0.00  0.00  0.00  0.00  0.00  0.00
 1988 147   146    58     1  3.64   0.0  1348  1026     0   589  2375  2374    18 0.000     0     0 0.000 0.000 0.000  4.13  0.00 270.0  0.00  0.00 0.000  0.42  0.98  1.85  1.33  0.22  0.00  0.00  0.00  0.00  0.00  0.00
 1988 148   147    59     1  4.01   0.0  1484  1131     0   644  2615  2615    22 0.000     0     0 0.000 0.000 0.000  4.09  0.00 270.0  0.00  0.00 0.000  0.44  1.11  2.03  1.50  0.28  0.00  0.00  0.00  0.00  0.00  0.00
 1988 149   148    60     2  4.11   0.0  1523  1163     7   658  2693  2686    26 0.003     0     0 0.000 0.000 0.000  4.14  0.00 270.0  0.00  0.00 0.000  0.45  1.19  2.17  1.64  0.34  0.00  0.00  0.00  0.00  0.00  0.00
 1988 150   149    61     2  4.22   0.1  1562  1196    17   672  2775  2758    31 0.006     0     0 0.000 0.000 0.000  4.19  0.00 270.0  0.00  0.00 0.000  0.46  1.20  2.20  1.67  0.36  0.00  0.00  0.00  0.00  0.00  0.00
 1988 151   150    62     2  4.33   0.3  1603  1231    55   687  2890  2834    37 0.019     0     0 0.000 0.000 0.000  4.23  0.00 270.0  0.00  0.00 0.000  0.47  1.23  2.23  1.70  0.37  0.00  0.00  0.00  0.00  0.00  0.00
 1988 152   151    63     2  4.45   0.6  1648  1268   119   703  3035  2916    42 0.039     0     0 0.000 0.000 0.000  4.28  0.00 270.0  0.00  0.00 0.000  0.48  1.26  2.26  1.73  0.38  0.00  0.00  0.00  0.00  0.00  0.00
 1988 153   152    64     2  4.57   1.1  1694  1308   211   720  3212  3002    48 0.066     0     0 0.000 0.000 0.000  4.33  0.00 270.0  0.00  0.00 0.000  0.49  1.29  2.29  1.76  0.40  0.00  0.00  0.00  0.00  0.00  0.00
 1988 154   153    65     2  4.71   1.7  1744  1351   333   738  3428  3095    56 0.097     0     0 0.000 0.000 0.000  4.38  0.00 270.0  0.00  0.00 0.000  0.50  1.33  2.32  1.80  0.41  0.00  0.00  0.00  0.00  0.00  0.00
 1988 155   154    66     2  4.81   2.2  1782  1387   449   754  3618  3169    66 0.124     0     0 0.000 0.000 0.000  4.42  0.00 270.0  0.00  0.00 0.000  0.51  1.36  2.36  1.84  0.43  0.00  0.00  0.00  0.00  0.00  0.00
 1988 156   155    67     2  4.92   2.9  1821  1425   589   770  3835  3246    77 0.154     0     0 0.000 0.000 0.000  4.46  0.00 270.0  0.00  0.00 0.000  0.52  1.39  2.39  1.87  0.45  0.01  0.00  0.00  0.00  0.00  0.00
 1988 157   156    68     2  4.98   3.5  1846  1453   706   782  4005  3299    91 0.176     0     0 0.000 0.000 0.000  4.49  0.00 270.0  0.00  0.00 0.000  0.53  1.42  2.42  1.90  0.46  0.01  0.00  0.00  0.00  0.00  0.00
 1988 158   157    69     2  5.07   4.3  1878  1488   863   797  4229  3366   105 0.204     0     0 0.000 0.000 0.000  4.53  0.00 270.0  0.00  0.00 0.000  0.54  1.44  2.44  1.92  0.47  0.01  0.00  0.00  0.00  0.00  0.00
 1988 159   158    70     2  5.16   5.2  1910  1525  1044   813  4479  3435   121 0.233     0     0 0.000 0.000 0.000  4.57  0.00 270.0  0.00  0.00 0.000  0.55  1.47  2.46  1.95  0.49  0.01  0.00  0.00  0.00  0.00  0.00
 1988 160   159    71     2  5.24   6.2  1940  1561  1235   828  4736  3501   139 0.261     0     0 0.000 0.000 0.000  4.61  0.00 270.0  0.00  0.00 0.000  0.56  1.50  2.49  1.98  0.50  0.01  0.00  0.00  0.00  0.00  0.00
 1988 161   160    72     2  5.33   7.2  1974  1600  1446   845  5019  3574   158 0.288     0     0 0.000 0.000 0.000  4.65  0.00 270.0  0.00  0.00 0.000  0.57  1.52  2.52  2.01  0.52  0.01  0.00  0.00  0.00  0.00  0.00
 1988 162   161    73     2  5.43   8.4  2010  1643  1671   863  5324  3653   179 0.314     0     0 0.000 0.000 0.000  4.69  0.00 270.0  0.00  0.00 0.000  0.58  1.55  2.55  2.05  0.53  0.02  0.00  0.00  0.00  0.00  0.00
 1988 163   162    74     2  5.53   9.1  2047  1688  1825   882  5560  3735   202 0.328     0     0 0.000 0.000 0.000  4.71  0.00 270.0  0.00  0.00 0.000  0.59  1.58  2.58  2.09  0.55  0.02  0.00  0.00  0.00  0.00  0.00
 1988 164   163    75     2  5.63   9.9  2087  1737  1982   903  5806  3824   227 0.341     0     0 0.000 0.000 0.000  4.65  0.00 270.0  0.00  0.00 0.000  0.60  1.61  2.61  2.13  0.57  0.02  0.00  0.00  0.00  0.00  0.00
 1988 165   164    76     2  5.74  11.0  2124  1785  2207   924  6117  3909   254 0.361     0     0 0.000 0.000 0.000  4.70  0.00 270.0  0.00  0.00 0.000  0.62  1.65  2.64  2.18  0.59  0.03  0.00  0.00  0.00  0.00  0.00
 1988 166   165    77     2  5.83  12.2  2160  1834  2432   944  6426  3994   284 0.378     0     0 0.000 0.000 0.000  4.72  0.00 270.0  0.00  0.00 0.000  0.63  1.70  2.67  2.22  0.61  0.03  0.01  0.00  0.00  0.00  0.00
 1988 167   166    78     2  5.92  12.9  2193  1882  2586   965  6662  4075   315 0.388     0     0 0.000 0.000 0.000  4.69  0.00 270.0  0.00  0.00 0.000  0.64  1.75  2.69  2.26  0.64  0.03  0.01  0.00  0.00  0.00  0.00
 1988 168   167    79     2  5.99  13.9  2220  1928  2772   984  6919  4148   349 0.401     0     0 0.000 0.000 0.000  4.72  0.00 270.0  0.00  0.00 0.000  0.65  1.78  2.73  2.31  0.66  0.03  0.01  0.00  0.00  0.00  0.00
 1988 169   168    80     2  6.07  14.7  2249  1976  2945  1005  7171  4225   385 0.411     0     0 0.000 0.000 0.000  4.74  0.00 270.0  0.00  0.00 0.000  0.65  1.81  2.76  2.34  0.68  0.04  0.01  0.00  0.00  0.00  0.00
 1988 170   169    81     2  6.15  15.6  2277  2025  3122  1026  7423  4302   422 0.421     0     0 0.000 0.000 0.000  4.70  0.00 270.0  0.00  0.00 0.000  0.65  1.84  2.80  2.38  0.70  0.04  0.02  0.00  0.00  0.00  0.00
 1988 171   170    82     2  6.22  16.5  2302  2074  3301  1047  7677  4376   461 0.430     0     0 0.000 0.000 0.000  4.62  0.00 270.0  0.00  0.00 0.000  0.65  1.87  2.83  2.42  0.73  0.04  0.02  0.00  0.00  0.00  0.00
 1988 172   171    83     2  6.27  17.4  2322  2119  3487  1066  7929  4441   502 0.440     0     0 0.000 0.000 0.000  4.66  0.00 270.0  0.00  0.00 0.000  0.65  1.93  2.86  2.46  0.75  0.05  0.02  0.00  0.00  0.00  0.00
 1988 173   172    84     2  6.32  18.4  2341  2165  3674  1086  8179  4506   544 0.449     0     0 0.000 0.000 0.000  4.68  0.00 270.0  0.00  0.00 0.000  0.65  1.98  2.88  2.49  0.78  0.05  0.03  0.00  0.00  0.00  0.00
 1988 174   173    85     2  6.35  19.1  2353  2206  3813  1103  8373  4559   587 0.455     0     0 0.000 0.000 0.000  4.65  0.00 270.0  0.00  0.00 0.000  0.65  2.04  2.89  2.52  0.80  0.05  0.03  0.00  0.00  0.00  0.00
 1988 175   174    86     2  6.41  20.0  2373  2255  4002  1124  8631  4628   632 0.464     0     0 0.000 0.000 0.000  4.67  0.00 270.0  0.00  0.00 0.000  0.65  2.07  2.93  2.55  0.82  0.06  0.03  0.00  0.00  0.00  0.00
 1988 176   175    87     2  6.46  21.0  2393  2304  4194  1145  8890  4697   677 0.472     0     0 0.000 0.000 0.000  4.65  0.00 270.0  0.00  0.00 0.000  0.65  2.10  2.98  2.58  0.84  0.06  0.03  0.00  0.00  0.00  0.00
 1988 177   176    88     2  6.51  21.9  2410  2352  4388  1166  9150  4762   725 0.480     0     0 0.000 0.000 0.000  4.62  0.00 270.0  0.00  0.00 0.000  0.65  2.14  3.02  2.61  0.87  0.06  0.04  0.00  0.00  0.00  0.00
 1988 178   177    89     2  6.55  22.9  2427  2401  4584  1186  9412  4828   773 0.487     0     0 0.000 0.000 0.000  4.55  0.00 270.0  0.00  0.00 0.000  0.65  2.17  3.05  2.63  0.90  0.07  0.04  0.00  0.00  0.00  0.00
 1988 179   178    90     2  6.59  23.9  2442  2449  4783  1207  9675  4891   822 0.494     0     0 0.000 0.000 0.000  4.55  0.00 270.0  0.00  0.00 0.000  0.65  2.24  3.07  2.66  0.93  0.07  0.05  0.00  0.00  0.00  0.00
 1988 180   179    91     2  6.63  24.9  2456  2498  4985  1228  9938  4954   873 0.502     0     0 0.000 0.000 0.000  4.55  0.00 270.0  0.00  0.00 0.000  0.65  2.32  3.10  2.68  0.96  0.08  0.05  0.00  0.00  0.00  0.00
 1988 181   180    92     2  6.67  25.9  2469  2546  5189  1248 10204  5015   925 0.508     0     0 0.000 0.000 0.000  4.50  0.00 270.0  0.00  0.00 0.000  0.65  2.41  3.11  2.71  0.99  0.08  0.05  0.00  0.00  0.00  0.00
 1988 182   181    93     2  6.52  27.0  2416  2546  5395  1248 10358  4962   977 0.521     0     0 0.000 0.000 0.000  4.52  0.00 270.0  0.00  0.00 0.000  0.65  2.49  3.12  2.73  1.01  0.09  0.06  0.00  0.00  0.00  0.00
 1988 183   182    94     2  6.57  28.0  2432  2595  5599  1269 10626  5027  1026 0.527     0     0 0.000 0.000 0.000  4.51  0.00 270.0  0.00  0.00 0.000  0.65  2.49  3.12  2.73  1.01  0.09  0.06  0.00  0.00  0.00  0.00
 1988 184   183    95     2  6.61  29.0  2447  2644  5804  1290 10895  5091  1076 0.533     0     0 0.000 0.000 0.000  4.47  0.00 270.0  0.00  0.00 0.000  0.65  2.51  3.18  2.75  1.04  0.09  0.06  0.00  0.00  0.00  0.00
 1988 185   184    96     2  6.47  30.1  2396  2644  6020  1290 11060  5040  1127 0.544     0     0 0.000 0.000 0.000  4.49  0.00 270.0  0.00  0.00 0.000  0.65  2.54  3.22  2.78  1.07  0.10  0.07  0.00  0.00  0.00  0.00
 1988 186   185    97     2  6.52  31.2  2414  2692  6240  1311 11346  5106  1175 0.550     0     0 0.000 0.000 0.000  4.44  0.00 270.0  0.00  0.00 0.000  0.65  2.54  3.22  2.78  1.07  0.10  0.07  0.00  0.00  0.00  0.00
 1988 187   186    98     2  6.55  32.3  2427  2739  6463  1331 11629  5166  1223 0.556     0     0 0.000 0.000 0.000  4.43  0.00 270.0  0.00  0.00 0.000  0.65  2.60  3.27  2.80  1.08  0.10  0.07  0.00  0.00  0.00  0.00
 1988 188   187    99     2  6.59  33.4  2442  2787  6688  1351 11918  5229  1273 0.561     0     0 0.000 0.000 0.000  4.43  0.00 270.0  0.00  0.00 0.000  0.65  2.65  3.31  2.82  1.10  0.11  0.07  0.00  0.00  0.00  0.00
 1988 189   188   100     2  6.63  34.6  2456  2836  6913  1372 12206  5292  1323 0.566     0     0 0.000 0.000 0.000  4.37  0.00 270.0  0.00  0.00 0.000  0.65  2.71  3.35  2.85  1.12  0.11  0.08  0.00  0.00  0.00  0.00
 1988 190   189   101     2  6.49  35.7  2405  2836  7138  1372 12379  5241  1375 0.577     0     0 0.000 0.000 0.000  4.38  0.00 270.0  0.00  0.00 0.000  0.65  2.77  3.38  2.88  1.14  0.12  0.08  0.00  0.00  0.00  0.00
 1988 191   190   102     2  6.51  36.5  2411  2876  7299  1389 12586  5287  1423 0.580     0     0 0.000 0.000 0.000  4.37  0.00 270.0  0.00  0.00 0.000  0.65  2.77  3.38  2.88  1.14  0.12  0.08  0.00  0.00  0.00  0.00
 1988 192   191   103     2  6.53  37.4  2420  2920  7473  1408 12813  5340  1471 0.583     0     0 0.000 0.000 0.000  4.32  0.00 270.0  0.00  0.00 0.000  0.65  2.78  3.40  2.91  1.15  0.12  0.09  0.00  0.00  0.00  0.00
 1988 193   192   104     2  6.58  38.5  2435  2968  7698  1428 13102  5403  1521 0.588     0     0 0.000 0.000 0.000  4.29  0.00 270.0  0.00  0.00 0.000  0.65  2.86  3.42  2.93  1.16  0.13  0.09  0.00  0.00  0.00  0.00
 1988 194   193   105     2  6.62  39.6  2450  3017  7923  1449 13390  5467  1571 0.592     0     0 0.000 0.000 0.000  4.23  0.00 270.0  0.00  0.00 0.000  0.65  2.96  3.43  2.95  1.18  0.13  0.10  0.00  0.00  0.00  0.00
 1988 195   194   106     2  6.65  40.7  2464  3065  8148  1470 13677  5529  1622 0.596     0     0 0.000 0.000 0.000  4.22  0.00 270.0  0.00  0.00 0.000  0.65  3.00  3.49  2.98  1.19  0.13  0.10  0.00  0.00  0.00  0.00
 1988 196   195   107     2  6.69  41.9  2476  3114  8373  1491 13964  5590  1674 0.600     0     0 0.000 0.000 0.000  4.22  0.00 270.0  0.00  0.00 0.000  0.65  3.04  3.55  3.00  1.20  0.14  0.10  0.00  0.00  0.00  0.00
 1988 197   196   108     2  6.72  43.0  2488  3163  8598  1511 14249  5651  1727 0.603     0     0 0.000 0.000 0.000  4.16  0.00 270.0  0.00  0.00 0.000  0.65  3.07  3.60  3.03  1.22  0.14  0.11  0.00  0.00  0.00  0.00
 1988 198   197   109     2  6.57  44.1  2434  3163  8823  1511 14420  5597  1782 0.612     0     0 0.000 0.000 0.000  4.16  0.00 270.0  0.00  0.00 0.000  0.65  3.10  3.64  3.06  1.23  0.15  0.11  0.00  0.00  0.00  0.00
 1988 199   198   110     2  6.60  45.1  2444  3208  9010  1531 14663  5652  1832 0.614     0     0 0.000 0.000 0.000  4.11  0.00 270.0  0.00  0.00 0.000  0.65  3.10  3.64  3.06  1.23  0.15  0.11  0.00  0.00  0.00  0.00
 1988 200   199   111     2  6.64  46.2  2458  3257  9235  1552 14950  5715  1882 0.618     0     0 0.000 0.000 0.000  4.11  0.00 270.0  0.00  0.00 0.000  0.65  3.20  3.65  3.08  1.25  0.15  0.12  0.00  0.00  0.00  0.00
 1988 201   200   112     2  6.67  47.3  2471  3305  9460  1572 15237  5776  1934 0.621     0     0 0.000 0.000 0.000  4.06  0.00 270.0  0.00  0.00 0.000  0.65  3.29  3.66  3.11  1.26  0.16  0.12  0.00  0.00  0.00  0.00
 1988 202   201   113     2  6.68  48.1  2474  3347  9628  1590 15449  5821  1987 0.623     0     0 0.000 0.000 0.000  4.09  0.00 270.0  0.00  0.00 0.000  0.65  3.33  3.72  3.13  1.27  0.16  0.12  0.00  0.00  0.00  0.00
 1988 203   202   114     2  6.62  48.5  2452  3371  9702  1600 15525  5823  2040 0.625     0     0 0.000 0.000 0.000  4.12  0.00 270.0  0.00  0.00 0.000  0.65  3.35  3.77  3.15  1.28  0.17  0.13  0.00  0.00  0.00  0.00
 1988 204   203   115     2  6.60  49.0  2444  3403  9809  1614 15655  5847  2092 0.627     0     0 0.000 0.000 0.000  4.10  0.00 270.0  0.00  0.00 0.000  0.65  3.35  3.78  3.16  1.28  0.17  0.13  0.00  0.00  0.00  0.00
 1988 205   204   116     2  6.62  49.5  2453  3448  9902  1633 15803  5901  2142 0.627     0     0 0.000 0.000 0.000  4.09  0.00 270.0  0.00  0.00 0.000  0.65  3.34  3.80  3.18  1.29  0.17  0.13  0.00  0.00  0.00  0.00
 1988 206   205   117     2  6.48  50.4  2402  3448 10082  1633 15931  5850  2194 0.633     0     0 0.000 0.000 0.000  4.11  0.00 270.0  0.00  0.00 0.000  0.65  3.34  3.82  3.22  1.31  0.18  0.14  0.00  0.00  0.00  0.00
 1988 207   206   118     2  6.51  51.3  2413  3492 10262  1652 16167  5905  2242 0.635     0     0 0.000 0.000 0.000  4.09  0.00 270.0  0.00  0.00 0.000  0.65  3.34  3.82  3.22  1.31  0.18  0.14  0.00  0.00  0.00  0.00
 1988 208   207   119     2  6.52  52.0  2414  3529 10404  1668 16347  5943  2290 0.636     0     0 0.000 0.000 0.000  4.12  0.00 270.0  0.00  0.00 0.000  0.65  3.39  3.86  3.24  1.31  0.18  0.14  0.00  0.00  0.00  0.00
 1988 209   208   120     2  6.47  52.4  2398  3553 10484  1678 16435  5951  2339 0.638     0     0 0.000 0.000 0.000  4.15  0.00 270.0  0.00  0.00 0.000  0.65  3.44  3.90  3.25  1.32  0.18  0.14  0.00  0.00  0.00  0.00
 1988 210   209   121     2  6.49  53.1  2403  3593 10613  1695 16609  5996  2386 0.639     0     0 0.000 0.000 0.000  4.13  0.00 270.0  0.00  0.00 0.000  0.65  3.46  3.90  3.26  1.32  0.19  0.14  0.00  0.00  0.00  0.00
 1988 211   210   122     2  6.50  53.6  2407  3632 10717  1712 16756  6039  2434 0.640     0     0 0.000 0.000 0.000  4.15  0.00 270.0  0.00  0.00 0.000  0.65  3.46  3.93  3.29  1.33  0.19  0.15  0.00  0.00  0.00  0.00
 1988 212   211   123     2  6.49  54.2  2405  3666 10847  1726 16919  6071  2482 0.641     0     0 0.000 0.000 0.000  4.14  0.00 270.0  0.00  0.00 0.000  0.65  3.46  3.96  3.32  1.34  0.19  0.15  0.00  0.00  0.00  0.00
 1988 213   212   124     2  6.36  55.0  2357  3666 11003  1726 17026  6023  2530 0.646     0     0 0.000 0.000 0.000  4.14  0.00 270.0  0.00  0.00 0.000  0.65  3.46  3.96  3.34  1.35  0.20  0.15  0.00  0.00  0.00  0.00
 1988 214   213   125     2  6.24  56.1  2312  3666 11228  1726 17206  5978  2575 0.653     0     0 0.000 0.000 0.000  4.16  0.00 270.0  0.00  0.00 0.000  0.65  3.46  3.96  3.34  1.35  0.20  0.15  0.00  0.00  0.00  0.00
 1988 215   214   126     2  6.13  57.3  2271  3666 11453  1726 17390  5937  2616 0.659     0     0 0.000 0.000 0.000  4.14  0.00 270.0  0.00  0.00 0.000  0.65  3.46  3.96  3.34  1.35  0.20  0.15  0.00  0.00  0.00  0.00
 1988 216   215   127     2  6.03  58.4  2232  3666 11678  1726 17576  5898  2655 0.664     0     0 0.000 0.000 0.000  4.12  0.00 270.0  0.00  0.00 0.000  0.65  3.46  3.96  3.34  1.35  0.20  0.15  0.00  0.00  0.00  0.00
 1988 217   216   128     2  5.93  59.5  2196  3666 11903  1726 17765  5862  2691 0.670     0     0 0.000 0.000 0.000  4.09  0.00 270.0  0.00  0.00 0.000  0.65  3.46  3.96  3.34  1.35  0.20  0.15  0.00  0.00  0.00  0.00
 1988 218   217   129     2  5.83  60.4  2161  3666 12076  1726 17903  5827  2726 0.675     0     0 0.000 0.000 0.000  4.08  0.00 270.0  0.00  0.00 0.000  0.65  3.46  3.96  3.34  1.35  0.20  0.15  0.00  0.00  0.00  0.00
 1988 219   218   130     2  5.74  61.5  2126  3666 12301  1726 18093  5792  2761 0.680     0     0 0.000 0.000 0.000  4.05  0.00 270.0  0.00  0.00 0.000  0.65  3.46  3.96  3.34  1.35  0.20  0.15  0.00  0.00  0.00  0.00
 1988 220   219   131     2  5.65  62.6  2091  3666 12526  1726 18283  5757  2796 0.685     0     0 0.000 0.000 0.000  4.03  0.00 270.0  0.00  0.00 0.000  0.65  3.46  3.96  3.34  1.35  0.20  0.15  0.00  0.00  0.00  0.00
 1988 221   220   132     2  5.55  63.8  2055  3666 12751  1726 18473  5721  2832 0.690     0     0 0.000 0.000 0.000  4.01  0.00 270.0  0.00  0.00 0.000  0.65  3.46  3.96  3.34  1.35  0.20  0.15  0.00  0.00  0.00  0.00
 1988 222   221   133     2  5.45  64.6  2020  3666 12912  1726 18598  5686  2867 0.694     0     0 0.000 0.000 0.000  4.01  0.00 270.0  0.00  0.00 0.000  0.65  3.46  3.96  3.34  1.35  0.20  0.15  0.00  0.00  0.00  0.00
 1988 223   222   134     2  5.36  65.5  1984  3666 13099  1726 18749  5650  2903 0.699     0     0 0.000 0.000 0.000  3.98  0.00 270.0  0.00  0.00 0.000  0.65  3.46  3.96  3.34  1.35  0.20  0.15  0.00  0.00  0.00  0.00
 1988 224   223   135     2  5.26  66.6  1948  3666 13316  1726 18930  5614  2939 0.703     0     0 0.000 0.000 0.000  3.96  0.00 270.0  0.00  0.00 0.000  0.65  3.46  3.96  3.34  1.35  0.20  0.15  0.00  0.00  0.00  0.00
 1988 225   224   136     2  5.16  67.5  1912  3666 13508  1726 19087  5578  2975 0.708     0     0 0.000 0.000 0.000  3.95  0.00 270.0  0.00  0.00 0.000  0.65  3.46  3.96  3.34  1.35  0.20  0.15  0.00  0.00  0.00  0.00
 1988 226   225   137     2  5.07  68.7  1876  3666 13732  1726 19274  5542  3011 0.712     0     0 0.000 0.000 0.000  3.93  0.00 270.0  0.00  0.00 0.000  0.65  3.46  3.96  3.34  1.35  0.20  0.15  0.00  0.00  0.00  0.00
 1988 227   226   138     2  4.97  69.8  1840  3666 13957  1726 19463  5506  3047 0.717     0     0 0.000 0.000 0.000  3.90  0.00 270.0  0.00  0.00 0.000  0.65  3.46  3.96  3.34  1.35  0.20  0.15  0.00  0.00  0.00  0.00
 1988 228   227   139     2  4.87  70.9  1804  3666 14182  1726 19652  5470  3083 0.722     0     0 0.000 0.000 0.000  3.87  0.00 270.0  0.00  0.00 0.000  0.65  3.46  3.96  3.34  1.35  0.20  0.15  0.00  0.00  0.00  0.00
 1988 229   228   140     2  4.77  72.0  1767  3666 14407  1726 19840  5433  3120 0.726     0     0 0.000 0.000 0.000  3.85  0.00 270.0  0.00  0.00 0.000  0.65  3.46  3.96  3.34  1.35  0.20  0.15  0.00  0.00  0.00  0.00
 1988 230   229   141     2  4.67  73.2  1730  3666 14632  1726 20029  5396  3157 0.731     0     0 0.000 0.000 0.000  3.84  0.00 270.0  0.00  0.00 0.000  0.65  3.46  3.96  3.34  1.35  0.20  0.15  0.00  0.00  0.00  0.00
 1988 231   230   142     2  4.57  74.3  1694  3666 14857  1726 20217  5360  3193 0.735     0     0 0.000 0.000 0.000  3.82  0.00 270.0  0.00  0.00 0.000  0.65  3.46  3.96  3.34  1.35  0.20  0.15  0.00  0.00  0.00  0.00
 1988 232   231   143     2  4.47  75.4  1657  3666 15082  1726 20406  5323  3230 0.739     0     0 0.000 0.000 0.000  3.78  0.00 270.0  0.00  0.00 0.000  0.65  3.46  3.96  3.34  1.35  0.20  0.15  0.00  0.00  0.00  0.00
 1988 233   232   144     5  4.47  75.4  1657  3666 15082  1726 20406  5323  3230 0.739     0     0 0.000 0.000 0.000  3.78  0.00 270.0  0.00  0.00 0.000  0.65  3.46  3.96  3.34  1.35  0.20  0.15  0.00  0.00  0.00  0.00

*RUN   3        :  NASA-PIX Field #3       
 MODEL          : PTSUB020 - POTATO    
 EXPERIMENT     : OSBO8801 PT     OSBO8801PT Oregon: Hermiston commercial data, 
 TREATMENT  3   :  NASA-PIX Field #3       

! YR       Days  Days  Grow       Fresh                Dry Weight                           Pod      Phot. Grow       Leaf Shell   Spec    Canopy          Root  ³                Root Length Density                     ³
!   and   after after Stage  LAI  Yield  Leaf  Stem Tuber  Root  Crop  Tops DLeaf   HI   Wgt.   No.    Water     Nit.   Nit -ing   Leaf  Hght  Brdth      Depth  ³                cm3/cm3   of soil                       ³
!     DOY   sim plant             Mg/Ha  ³<--------------- kg/Ha --------------->³      Kg/Ha        ³<Stress (0-1)>³    %     %   Area    m     m           m   ³<------------------------------------------------------>³
@YEAR DOY   DAS   DAP  GSTD  LAID  UYAD  LWAD  SWAD  UWAD  RWAD  TWAD  CWAD  DWAD  HIAD  EWAD  E#AD  WSPD  WSGD  NSTD  LN%D  SH%D  SLAD  CHTD  CWID  EWSD  RDPD  RL1D  RL2D  RL3D  RL4D  RL5D  RL6D  RL7D  RL8D  RL9D  RL10
 1988 098    97     0     7  0.00   0.0     0     0     0     0     0     0     0 0.000     0     0 0.000 0.000 0.000  0.00  0.00   0.0  0.00  0.00 0.000  0.00  0.00  0.00  0.00  0.00  0.00  0.00  0.00  0.00  0.00  0.00
 1988 099    98     1     7  0.00   0.0     0     0     0     1     0     0     0 0.000     0     0 0.000 0.000 0.000  0.00  0.00   0.0  0.00  0.00 0.000  0.00  0.00  0.00  0.00  0.00  0.00  0.00  0.00  0.00  0.00  0.00
 1988 100    99     2     7  0.00   0.0     0     0     0     1     0     0     0 0.000     0     0 0.000 0.000 0.000  0.00  0.00   0.0  0.00  0.00 0.000  0.10  0.00  0.00  0.00  0.00  0.00  0.00  0.00  0.00  0.00  0.00
 1988 101   100     3     7  0.00   0.0     0     0     0     2     0     0     0 0.000     0     0 0.000 0.000 0.000  0.00  0.00   0.0  0.00  0.00 0.000  0.10  0.01  0.01  0.00  0.00  0.00  0.00  0.00  0.00  0.00  0.00
 1988 102   101     4     7  0.00   0.0     0     0     0     3     0     0     0 0.000     0     0 0.000 0.000 0.000  0.00  0.00   0.0  0.00  0.00 0.000  0.10  0.01  0.01  0.00  0.00  0.00  0.00  0.00  0.00  0.00  0.00
 1988 103   102     5     7  0.00   0.0     0     0     0     4     0     0     0 0.000     0     0 0.000 0.000 0.000  0.00  0.00   0.0  0.00  0.00 0.000  0.10  0.01  0.02  0.00  0.00  0.00  0.00  0.00  0.00  0.00  0.00
 1988 104   103     6     7  0.00   0.0     0     0     0     5     0     0     0 0.000     0     0 0.000 0.000 0.000  0.00  0.00   0.0  0.00  0.00 0.000  0.10  0.01  0.03  0.00  0.00  0.00  0.00  0.00  0.00  0.00  0.00
 1988 105   104     7     7  0.00   0.0     0     0     0     6     0     0     0 0.000     0     0 0.000 0.000 0.000  0.00  0.00   0.0  0.00  0.00 0.000  0.10  0.01  0.04  0.00  0.00  0.00  0.00  0.00  0.00  0.00  0.00
 1988 106   105     8     7  0.00   0.0     0     0     0     7     0     0     0 0.000     0     0 0.000 0.000 0.000  0.00  0.00   0.0  0.00  0.00 0.000  0.10  0.01  0.04  0.00  0.00  0.00  0.00  0.00  0.00  0.00  0.00
 1988 107   106     9     7  0.00   0.0     0     0     0     8     0     0     0 0.000     0     0 0.000 0.000 0.000  0.00  0.00   0.0  0.00  0.00 0.000  0.10  0.01  0.05  0.00  0.00  0.00  0.00  0.00  0.00  0.00  0.00
 1988 108   107    10     7  0.00   0.0     0     0     0     9     0     0     0 0.000     0     0 0.000 0.000 0.000  0.00  0.00   0.0  0.00  0.00 0.000  0.10  0.01  0.06  0.00  0.00  0.00  0.00  0.00  0.00  0.00  0.00
 1988 109   108    11     7  0.00   0.0     0     0     0    11     0     0     0 0.000     0     0 0.000 0.000 0.000  0.00  0.00   0.0  0.00  0.00 0.000  0.10  0.02  0.06  0.00  0.00  0.00  0.00  0.00  0.00  0.00  0.00
 1988 110   109    12     7  0.00   0.0     0     0     0    12     0     0     0 0.000     0     0 0.000 0.000 0.000  0.00  0.00   0.0  0.00  0.00 0.000  0.10  0.02  0.07  0.00  0.00  0.00  0.00  0.00  0.00  0.00  0.00
 1988 111   110    13     7  0.00   0.0     0     0     0    12     0     0     0 0.000     0     0 0.000 0.000 0.000  0.00  0.00   0.0  0.00  0.00 0.000  0.10  0.03  0.07  0.00  0.00  0.00  0.00  0.00  0.00  0.00  0.00
 1988 112   111    14     7  0.00   0.0     0     0     0    13     0     0     0 0.000     0     0 0.000 0.000 0.000  0.00  0.00   0.0  0.00  0.00 0.000  0.10  0.04  0.07  0.00  0.00  0.00  0.00  0.00  0.00  0.00  0.00
 1988 113   112    15     7  0.00   0.0     0     0     0    14     0     0     0 0.000     0     0 0.000 0.000 0.000  0.00  0.00   0.0  0.00  0.00 0.000  0.10  0.04  0.07  0.00  0.00  0.00  0.00  0.00  0.00  0.00  0.00
 1988 114   113    16     7  0.00   0.0     0     0     0    14     0     0     0 0.000     0     0 0.000 0.000 0.000  0.00  0.00   0.0  0.00  0.00 0.000  0.10  0.05  0.08  0.00  0.00  0.00  0.00  0.00  0.00  0.00  0.00
 1988 115   114    17     7  0.00   0.0     0     0     0    15     0     0     0 0.000     0     0 0.000 0.000 0.000  0.00  0.00   0.0  0.00  0.00 0.000  0.10  0.05  0.08  0.00  0.00  0.00  0.00  0.00  0.00  0.00  0.00
 1988 116   115    18     7  0.00   0.0     0     0     0    16     0     0     0 0.000     0     0 0.000 0.000 0.000  0.00  0.00   0.0  0.00  0.00 0.000  0.10  0.05  0.08  0.00  0.00  0.00  0.00  0.00  0.00  0.00  0.00
 1988 117   116    19     7  0.00   0.0     0     0     0    16     0     0     0 0.000     0     0 0.000 0.000 0.000  0.00  0.00   0.0  0.00  0.00 0.000  0.10  0.05  0.09  0.00  0.00  0.00  0.00  0.00  0.00  0.00  0.00
 1988 118   117    20     1  0.02   0.0     7     6     0    19    14    13     0 0.035     0     0 0.000 0.000 0.000  4.92  0.00 270.0  0.00  0.00 0.000  0.10  0.05  0.09  0.00  0.00  0.00  0.00  0.00  0.00  0.00  0.00
 1988 119   118    21     1  0.03   0.0    10     9     0    22    19    19     0 0.025     0     0 0.000 0.000 0.000  4.91  0.00 270.0  0.00  0.00 0.000  0.11  0.05  0.11  0.00  0.00  0.00  0.00  0.00  0.00  0.00  0.00
 1988 120   119    22     1  0.04   0.0    13    11     0    24    25    24     0 0.019     0     0 0.000 0.000 0.000  5.04  0.00 270.0  0.00  0.00 0.000  0.12  0.07  0.13  0.00  0.00  0.00  0.00  0.00  0.00  0.00  0.00
 1988 121   120    23     1  0.04   0.0    16    13     0    26    30    29     0 0.016     0     0 0.000 0.000 0.000  5.16  0.00 270.0  0.00  0.00 0.000  0.13  0.08  0.14  0.00  0.00  0.00  0.00  0.00  0.00  0.00  0.00
 1988 122   121    24     1  0.05   0.0    20    16     0    29    36    36     0 0.013     0     0 0.000 0.000 0.000  5.18  0.00 270.0  0.00  0.00 0.000  0.14  0.09  0.15  0.00  0.00  0.00  0.00  0.00  0.00  0.00  0.00
 1988 123   122    25     1  0.06   0.0    23    18     0    31    41    41     0 0.012     0     0 0.000 0.000 0.000  5.28  0.00 270.0  0.00  0.00 0.000  0.14  0.10  0.17  0.00  0.00  0.00  0.00  0.00  0.00  0.00  0.00
 1988 124   123    26     1  0.07   0.0    27    21     0    34    49    48     0 0.010     0     0 0.000 0.000 0.000  5.15  0.00 270.0  0.00  0.00 0.000  0.15  0.11  0.19  0.00  0.00  0.00  0.00  0.00  0.00  0.00  0.00
 1988 125   124    27     1  0.09   0.0    32    25     0    37    57    57     0 0.008     0     0 0.000 0.000 0.000  5.04  0.00 270.0  0.00  0.00 0.000  0.15  0.11  0.21  0.00  0.00  0.00  0.00  0.00  0.00  0.00  0.00
 1988 126   125    28     1  0.10   0.0    36    29     0    40    65    65     0 0.007     0     0 0.000 0.000 0.000  4.94  0.00 270.0  0.00  0.00 0.000  0.16  0.11  0.24  0.00  0.00  0.00  0.00  0.00  0.00  0.00  0.00
 1988 127   126    29     1  0.11   0.0    41    32     0    43    74    73     0 0.006     0     0 0.000 0.000 0.000  4.86  0.00 270.0  0.00  0.00 0.000  0.17  0.11  0.26  0.01  0.00  0.00  0.00  0.00  0.00  0.00  0.00
 1988 128   127    30     1  0.14   0.0    54    41     0    51    96    95     0 0.005     0     0 0.000 0.109 0.000  4.95  0.00 270.0  0.00  0.00 0.000  0.18  0.12  0.28  0.01  0.00  0.00  0.00  0.00  0.00  0.00  0.00
 1988 129   128    31     1  0.19   0.0    71    55     0    61   127   126     0 0.004     0     0 0.000 0.000 0.000  4.88  0.00 270.0  0.00  0.00 0.000  0.19  0.15  0.31  0.02  0.00  0.00  0.00  0.00  0.00  0.00  0.00
 1988 130   129    32     1  0.24   0.0    88    67     0    70   155   155     0 0.003     0     0 0.000 0.105 0.000  5.02  0.00 270.0  0.00  0.00 0.000  0.20  0.18  0.37  0.04  0.00  0.00  0.00  0.00  0.00  0.00  0.00
 1988 131   130    33     1  0.29   0.0   106    81     0    79   187   187     0 0.003     0     0 0.000 0.258 0.000  5.00  0.00 270.0  0.00  0.00 0.000  0.21  0.18  0.42  0.06  0.00  0.00  0.00  0.00  0.00  0.00  0.00
[...]
 1988 214   213   116     2  6.26  47.5  2317  3466  9491  1652 15273  5783  2302 0.621     0     0 0.000 0.000 0.000  4.86  0.00 270.0  0.00  0.00 0.000  0.65  2.92  3.88  3.26  1.35  0.17  0.13  0.00  0.00  0.00  0.00
 1988 215   214   117     2  6.32  48.6  2340  3514  9716  1672 15570  5854  2344 0.624     0     0 0.000 0.000 0.000  4.84  0.00 270.0  0.00  0.00 0.000  0.65  2.99  3.92  3.28  1.36  0.18  0.13  0.00  0.00  0.00  0.00
 1988 216   215   118     2  6.38  49.7  2361  3563  9941  1693 15865  5924  2387 0.627     0     0 0.000 0.000 0.000  4.78  0.00 270.0  0.00  0.00 0.000  0.65  3.05  3.96  3.30  1.37  0.18  0.13  0.00  0.00  0.00  0.00
 1988 217   216   119     2  6.25  50.8  2317  3563 10166  1693 16045  5880  2432 0.634     0     0 0.000 0.000 0.000  4.79  0.00 270.0  0.00  0.00 0.000  0.65  3.11  3.98  3.33  1.39  0.19  0.14  0.00  0.00  0.00  0.00
 1988 218   217   120     2  6.30  51.7  2332  3606 10339  1711 16276  5938  2474 0.635     0     0 0.000 0.000 0.000  4.75  0.00 270.0  0.00  0.00 0.000  0.65  3.11  3.98  3.33  1.39  0.19  0.14  0.00  0.00  0.00  0.00
 1988 219   218   121     2  6.18  52.8  2289  3606 10564  1711 16459  5895  2517 0.642     0     0 0.000 0.000 0.000  4.76  0.00 270.0  0.00  0.00 0.000  0.65  3.12  4.01  3.36  1.40  0.19  0.14  0.00  0.00  0.00  0.00
 1988 220   219   122     2  6.07  53.9  2249  3606 10789  1711 16644  5855  2557 0.648     0     0 0.000 0.000 0.000  4.75  0.00 270.0  0.00  0.00 0.000  0.65  3.12  4.01  3.36  1.40  0.19  0.14  0.00  0.00  0.00  0.00
 1988 221   220   123     2  5.97  55.1  2212  3606 11014  1711 16831  5818  2594 0.654     0     0 0.000 0.000 0.000  4.74  0.00 270.0  0.00  0.00 0.000  0.65  3.12  4.01  3.36  1.40  0.19  0.14  0.00  0.00  0.00  0.00
 1988 222   221   124     2  5.88  55.9  2177  3606 11175  1711 16957  5783  2629 0.659     0     0 0.000 0.000 0.000  4.76  0.00 270.0  0.00  0.00 0.000  0.65  3.12  4.01  3.36  1.40  0.19  0.14  0.00  0.00  0.00  0.00
 1988 223   222   125     2  5.79  56.8  2144  3606 11361  1711 17111  5750  2662 0.664     0     0 0.000 0.000 0.000  4.75  0.00 270.0  0.00  0.00 0.000  0.65  3.12  4.01  3.36  1.40  0.19  0.14  0.00  0.00  0.00  0.00
 1988 224   223   126     2  5.71  57.9  2114  3606 11579  1711 17298  5720  2693 0.669     0     0 0.000 0.000 0.000  4.73  0.00 270.0  0.00  0.00 0.000  0.65  3.12  4.01  3.36  1.40  0.19  0.14  0.00  0.00  0.00  0.00
 1988 225   224   127     2  5.63  58.9  2084  3606 11771  1711 17461  5690  2722 0.674     0     0 0.000 0.000 0.000  4.71  0.00 270.0  0.00  0.00 0.000  0.65  3.12  4.01  3.36  1.40  0.19  0.14  0.00  0.00  0.00  0.00
 1988 226   225   128     2  5.55  60.0  2054  3606 11995  1711 17655  5660  2752 0.679     0     0 0.000 0.000 0.000  4.69  0.00 270.0  0.00  0.00 0.000  0.65  3.12  4.01  3.36  1.40  0.19  0.14  0.00  0.00  0.00  0.00
 1988 227   226   129     2  5.47  61.1  2024  3606 12220  1711 17850  5630  2782 0.685     0     0 0.000 0.000 0.000  4.66  0.00 270.0  0.00  0.00 0.000  0.65  3.12  4.01  3.36  1.40  0.19  0.14  0.00  0.00  0.00  0.00
 1988 228   227   130     2  5.38  62.2  1994  3606 12445  1711 18044  5600  2812 0.690     0     0 0.000 0.000 0.000  4.64  0.00 270.0  0.00  0.00 0.000  0.65  3.12  4.01  3.36  1.40  0.19  0.14  0.00  0.00  0.00  0.00
 1988 229   228   131     2  5.30  63.3  1963  3606 12670  1711 18239  5569  2843 0.695     0     0 0.000 0.000 0.000  4.62  0.00 270.0  0.00  0.00 0.000  0.65  3.12  4.01  3.36  1.40  0.19  0.14  0.00  0.00  0.00  0.00
 1988 230   229   132     2  5.22  64.5  1932  3606 12895  1711 18433  5538  2874 0.700     0     0 0.000 0.000 0.000  4.61  0.00 270.0  0.00  0.00 0.000  0.65  3.12  4.01  3.36  1.40  0.19  0.14  0.00  0.00  0.00  0.00
 1988 231   230   133     2  5.13  65.6  1902  3606 13120  1711 18627  5508  2905 0.704     0     0 0.000 0.000 0.000  4.59  0.00 270.0  0.00  0.00 0.000  0.65  3.12  4.01  3.36  1.40  0.19  0.14  0.00  0.00  0.00  0.00
 1988 232   231   134     2  5.05  66.7  1871  3606 13345  1711 18821  5477  2936 0.709     0     0 0.000 0.000 0.000  4.56  0.00 270.0  0.00  0.00 0.000  0.65  3.12  4.01  3.36  1.40  0.19  0.14  0.00  0.00  0.00  0.00
 1988 233   232   135     2  4.97  67.8  1839  3606 13570  1711 19015  5445  2967 0.714     0     0 0.000 0.000 0.000  4.52  0.00 270.0  0.00  0.00 0.000  0.65  3.12  4.01  3.36  1.40  0.19  0.14  0.00  0.00  0.00  0.00
 1988 234   233   136     2  4.88  69.0  1808  3606 13795  1711 19208  5414  2998 0.718     0     0 0.000 0.000 0.000  4.51  0.00 270.0  0.00  0.00 0.000  0.65  3.12  4.01  3.36  1.40  0.19  0.14  0.00  0.00  0.00  0.00
 1988 235   234   137     2  4.80  70.1  1776  3606 14020  1711 19402  5382  3030 0.723     0     0 0.000 0.000 0.000  4.49  0.00 270.0  0.00  0.00 0.000  0.65  3.12  4.01  3.36  1.40  0.19  0.14  0.00  0.00  0.00  0.00
 1988 236   235   138     2  4.71  71.2  1744  3606 14245  1711 19595  5350  3062 0.727     0     0 0.000 0.000 0.000  4.46  0.00 270.0  0.00  0.00 0.000  0.65  3.12  4.01  3.36  1.40  0.19  0.14  0.00  0.00  0.00  0.00
 1988 237   236   139     2  4.62  72.2  1713  3606 14450  1711 19768  5319  3094 0.731     0     0 0.000 0.000 0.000  4.43  0.00 270.0  0.00  0.00 0.000  0.65  3.12  4.01  3.36  1.40  0.19  0.14  0.00  0.00  0.00  0.00
 1988 238   237   140     2  4.54  72.9  1681  3606 14586  1711 19872  5287  3126 0.734     0     0 0.000 0.000 0.000  4.43  0.00 270.0  0.00  0.00 0.000  0.65  3.12  4.01  3.36  1.40  0.19  0.14  0.00  0.00  0.00  0.00
 1988 239   238   141     2  4.45  74.1  1649  3606 14811  1711 20065  5255  3157 0.738     0     0 0.000 0.000 0.000  4.40  0.00 270.0  0.00  0.00 0.000  0.65  3.12  4.01  3.36  1.40  0.19  0.14  0.00  0.00  0.00  0.00
 1988 240   239   142     2  4.37  75.2  1617  3606 15036  1711 20258  5223  3189 0.742     0     0 0.000 0.000 0.000  4.37  0.00 270.0  0.00  0.00 0.000  0.65  3.12  4.01  3.36  1.40  0.19  0.14  0.00  0.00  0.00  0.00
 1988 241   240   143     2  4.28  76.2  1585  3606 15247  1711 20438  5191  3221 0.746     0     0 0.000 0.000 0.000  4.35  0.00 270.0  0.00  0.00 0.000  0.65  3.12  4.01  3.36  1.40  0.19  0.14  0.00  0.00  0.00  0.00
 1988 242   241   144     2  4.19  77.3  1553  3606 15452  1711 20610  5159  3254 0.750     0     0 0.000 0.000 0.000  4.35  0.00 270.0  0.00  0.00 0.000  0.65  3.12  4.01  3.36  1.40  0.19  0.14  0.00  0.00  0.00  0.00
 1988 243   242   145     2  4.11  78.4  1521  3606 15677  1711 20803  5127  3286 0.754     0     0 0.000 0.000 0.000  4.33  0.00 270.0  0.00  0.00 0.000  0.65  3.12  4.01  3.36  1.40  0.19  0.14  0.00  0.00  0.00  0.00
 1988 244   243   146     2  4.02  79.5  1489  3606 15902  1711 20996  5095  3318 0.757     0     0 0.000 0.000 0.000  4.29  0.00 270.0  0.00  0.00 0.000  0.65  3.12  4.01  3.36  1.40  0.19  0.14  0.00  0.00  0.00  0.00
 1988 245   244   147     2  3.93  80.6  1456  3606 16127  1711 21189  5062  3350 0.761     0     0 0.000 0.000 0.000  4.25  0.00 270.0  0.00  0.00 0.000  0.65  3.12  4.01  3.36  1.40  0.19  0.14  0.00  0.00  0.00  0.00
 1988 246   245   148     2  3.85  81.5  1424  3606 16307  1711 21337  5030  3382 0.764     0     0 0.000 0.000 0.000  4.24  0.00 270.0  0.00  0.00 0.000  0.65  3.12  4.01  3.36  1.40  0.19  0.14  0.00  0.00  0.00  0.00
 1988 247   246   149     2  3.76  82.7  1392  3606 16532  1711 21530  4998  3414 0.768     0     0 0.000 0.000 0.000  4.21  0.00 270.0  0.00  0.00 0.000  0.65  3.12  4.01  3.36  1.40  0.19  0.14  0.00  0.00  0.00  0.00
 1988 248   247   150     2  3.67  83.8  1360  3606 16757  1711 21723  4966  3446 0.771     0     0 0.000 0.000 0.000  4.18  0.00 270.0  0.00  0.00 0.000  0.65  3.12  4.01  3.36  1.40  0.19  0.14  0.00  0.00  0.00  0.00
 1988 249   248   151     2  3.59  84.9  1328  3606 16982  1711 21916  4934  3478 0.775     0     0 0.000 0.000 0.000  4.15  0.00 270.0  0.00  0.00 0.000  0.65  3.12  4.01  3.36  1.40  0.19  0.14  0.00  0.00  0.00  0.00
 1988 250   249   152     2  3.50  86.0  1296  3606 17207  1711 22109  4902  3510 0.778     0     0 0.000 0.000 0.000  4.11  0.00 270.0  0.00  0.00 0.000  0.65  3.12  4.01  3.36  1.40  0.19  0.14  0.00  0.00  0.00  0.00
 1988 251   250   153     2  3.41  87.2  1264  3606 17432  1711 22302  4870  3542 0.782     0     0 0.000 0.000 0.000  4.07  0.00 270.0  0.00  0.00 0.000  0.65  3.12  4.01  3.36  1.40  0.19  0.14  0.00  0.00  0.00  0.00
 1988 252   251   154     2  3.33  88.2  1232  3606 17643  1711 22481  4838  3574 0.785     0     0 0.000 0.000 0.000  4.04  0.00 270.0  0.00  0.00 0.000  0.65  3.12  4.01  3.36  1.40  0.19  0.14  0.00  0.00  0.00  0.00
 1988 253   252   155     2  3.24  89.3  1201  3606 17868  1711 22674  4807  3606 0.788     0     0 0.000 0.000 0.000  4.00  0.00 270.0  0.00  0.00 0.000  0.65  3.12  4.01  3.36  1.40  0.19  0.14  0.00  0.00  0.00  0.00
 1988 254   253   156     2  3.16  90.5  1169  3606 18093  1711 22867  4775  3637 0.791     0     0 0.000 0.000 0.000  3.96  0.00 270.0  0.00  0.00 0.000  0.65  3.12  4.01  3.36  1.40  0.19  0.14  0.00  0.00  0.00  0.00
 1988 255   254   157     2  3.07  91.6  1137  3606 18318  1711 23061  4743  3669 0.794     0     0 0.000 0.000 0.000  3.92  0.00 270.0  0.00  0.00 0.000  0.65  3.12  4.01  3.36  1.40  0.19  0.14  0.00  0.00  0.00  0.00
 1988 256   255   158     2  2.98  92.7  1106  3606 18543  1711 23254  4712  3701 0.797     0     0 0.000 0.000 0.000  3.89  0.00 270.0  0.00  0.00 0.000  0.65  3.12  4.01  3.36  1.40  0.19  0.14  0.00  0.00  0.00  0.00
 1988 257   256   159     2  2.90  93.8  1074  3606 18768  1711 23448  4680  3732 0.800     0     0 0.000 0.000 0.000  3.84  0.00 270.0  0.00  0.00 0.000  0.65  3.12  4.01  3.36  1.40  0.19  0.14  0.00  0.00  0.00  0.00
 1988 258   257   160     2  2.82  94.7  1043  3606 18950  1711 23598  4649  3763 0.803     0     0 0.000 0.000 0.000  3.83  0.00 270.0  0.00  0.00 0.000  0.65  3.12  4.01  3.36  1.40  0.19  0.14  0.00  0.00  0.00  0.00
 1988 259   258   161     2  2.73  95.6  1012  3606 19127  1711 23745  4618  3794 0.806     0     0 0.000 0.000 0.000  3.80  0.00 270.0  0.00  0.00 0.000  0.65  3.12  4.01  3.36  1.40  0.19  0.14  0.00  0.00  0.00  0.00
 1988 260   259   162     2  2.65  96.6   982  3606 19323  1711 23911  4588  3824 0.808     0     0 0.000 0.000 0.000  3.76  0.00 270.0  0.00  0.00 0.000  0.65  3.12  4.01  3.36  1.40  0.19  0.14  0.00  0.00  0.00  0.00
 1988 261   260   163     2  2.57  97.7   952  3606 19539  1711 24096  4558  3854 0.811     0     0 0.000 0.000 0.000  3.72  0.00 270.0  0.00  0.00 0.000  0.65  3.12  4.01  3.36  1.40  0.19  0.14  0.00  0.00  0.00  0.00
 1988 262   261   164     2  2.49  98.8   922  3606 19759  1711 24286  4528  3884 0.814     0     0 0.000 0.000 0.000  3.67  0.00 270.0  0.00  0.00 0.000  0.65  3.12  4.01  3.36  1.40  0.19  0.14  0.00  0.00  0.00  0.00
 1988 263   262   165     2  2.41  99.9   892  3606 19984  1711 24481  4498  3914 0.816     0     0 0.000 0.000 0.000  3.63  0.00 270.0  0.00  0.00 0.000  0.65  3.12  4.01  3.36  1.40  0.19  0.14  0.00  0.00  0.00  0.00
 1988 264   263   166     2  2.33 101.0   863  3606 20209  1711 24677  4469  3944 0.819     0     0 0.000 0.000 0.000  3.59  0.00 270.0  0.00  0.00 0.000  0.65  3.12  4.01  3.36  1.40  0.19  0.14  0.00  0.00  0.00  0.00
 1988 265   264   167     2  2.25 102.2   833  3606 20434  1711 24873  4439  3973 0.822     0     0 0.000 0.000 0.000  3.54  0.00 270.0  0.00  0.00 0.000  0.65  3.12  4.01  3.36  1.40  0.19  0.14  0.00  0.00  0.00  0.00
 1988 266   265   168     2  2.17 103.3   804  3606 20659  1711 25068  4410  4002 0.824     0     0 0.000 0.000 0.000  3.49  0.00 270.0  0.00  0.00 0.000  0.65  3.12  4.01  3.36  1.40  0.19  0.14  0.00  0.00  0.00  0.00
 1988 267   266   169     2  2.09 104.4   775  3606 20884  1711 25265  4381  4031 0.827     0     0 0.000 0.000 0.000  3.45  0.00 270.0  0.00  0.00 0.000  0.65  3.12  4.01  3.36  1.40  0.19  0.14  0.00  0.00  0.00  0.00
 1988 268   267   170     2  2.02 105.5   747  3606 21098  1711 25451  4353  4059 0.829     0     0 0.000 0.000 0.000  3.41  0.00 270.0  0.00  0.00 0.000  0.65  3.12  4.01  3.36  1.40  0.19  0.14  0.00  0.00  0.00  0.00
 1988 269   268   171     2  1.94 106.5   719  3606 21309  1711 25634  4325  4087 0.831     0     0 0.000 0.000 0.000  3.37  0.00 270.0  0.00  0.00 0.000  0.65  3.12  4.01  3.36  1.40  0.19  0.14  0.00  0.00  0.00  0.00
 1988 270   269   172     2  1.87 107.7   691  3606 21534  1711 25831  4297  4115 0.834     0     0 0.000 0.000 0.000  3.32  0.00 270.0  0.00  0.00 0.000  0.65  3.12  4.01  3.36  1.40  0.19  0.14  0.00  0.00  0.00  0.00
 1988 271   270   173     2  1.79 108.8   664  3606 21759  1711 26028  4270  4142 0.836     0     0 0.000 0.000 0.000  3.28  0.00 270.0  0.00  0.00 0.000  0.65  3.12  4.01  3.36  1.40  0.19  0.14  0.00  0.00  0.00  0.00
 1988 272   271   174     2  1.72 109.9   637  3606 21984  1711 26226  4243  4170 0.838     0     0 0.000 0.000 0.000  3.22  0.00 270.0  0.00  0.00 0.000  0.65  3.12  4.01  3.36  1.40  0.19  0.14  0.00  0.00  0.00  0.00
 1988 273   272   175     2  1.65 111.0   610  3606 22209  1711 26425  4216  4196 0.840     0     0 0.000 0.000 0.000  3.16  0.00 270.0  0.00  0.00 0.000  0.65  3.12  4.01  3.36  1.40  0.19  0.14  0.00  0.00  0.00  0.00
 1988 274   273   176     2  1.57 112.1   581  3606 22423  1711 26609  4187  4225 0.843     0     0 0.000 0.000 0.000  3.12  0.00 270.0  0.00  0.00 0.000  0.65  3.12  4.01  3.36  1.40  0.19  0.14  0.00  0.00  0.00  0.00
 1988 275   274   177     2  1.49 113.2   553  3606 22637  1711 26795  4159  4253 0.845     0     0 0.000 0.000 0.000  3.07  0.00 270.0  0.00  0.00 0.000  0.65  3.12  4.01  3.36  1.40  0.19  0.14  0.00  0.00  0.00  0.00
 1988 276   275   178     2  1.42 114.3   526  3606 22850  1711 26982  4132  4280 0.847     0     0 0.000 0.000 0.000  3.03  0.00 270.0  0.00  0.00 0.000  0.65  3.12  4.01  3.36  1.40  0.19  0.14  0.00  0.00  0.00  0.00
 1988 277   276   179     2  1.35 115.3   499  3606 23057  1711 27162  4105  4307 0.849     0     0 0.000 0.000 0.000  2.98  0.00 270.0  0.00  0.00 0.000  0.65  3.12  4.01  3.36  1.40  0.19  0.14  0.00  0.00  0.00  0.00
 1988 278   277   180     2  1.28 116.1   474  3606 23226  1711 27306  4080  4332 0.851     0     0 0.000 0.000 0.000  2.94  0.00 270.0  0.00  0.00 0.000  0.65  3.12  4.01  3.36  1.40  0.19  0.14  0.00  0.00  0.00  0.00
 1988 279   278   181     2  1.21 116.9   450  3606 23385  1711 27441  4056  4356 0.852     0     0 0.000 0.000 0.000  2.91  0.00 270.0  0.00  0.00 0.000  0.65  3.12  4.01  3.36  1.40  0.19  0.14  0.00  0.00  0.00  0.00
 1988 280   279   182     2  1.15 117.6   426  3606 23524  1711 27556  4032  4380 0.854     0     0 0.000 0.000 0.000  2.88  0.00 270.0  0.00  0.00 0.000  0.65  3.12  4.01  3.36  1.40  0.19  0.14  0.00  0.00  0.00  0.00
 1988 281   280   183     2  1.09 118.3   403  3606 23657  1711 27666  4009  4403 0.855     0     0 0.000 0.000 0.000  2.85  0.00 270.0  0.00  0.00 0.000  0.65  3.12  4.01  3.36  1.40  0.19  0.14  0.00  0.00  0.00  0.00
 1988 282   281   184     2  1.03 118.9   382  3606 23777  1711 27764  3988  4424 0.856     0     0 0.000 0.000 0.000  2.84  0.00 270.0  0.00  0.00 0.000  0.65  3.12  4.01  3.36  1.40  0.19  0.14  0.00  0.00  0.00  0.00
 1988 283   282   185     2  0.97 119.3   361  3606 23868  1711 27834  3967  4445 0.857     0     0 0.000 0.000 0.000  2.82  0.00 270.0  0.00  0.00 0.000  0.65  3.12  4.01  3.36  1.40  0.19  0.14  0.00  0.00  0.00  0.00
 1988 284   283   186     2  0.92 119.8   341  3606 23954  1711 27900  3947  4465 0.859     0     0 0.000 0.000 0.000  2.81  0.00 270.0  0.00  0.00 0.000  0.65  3.12  4.01  3.36  1.40  0.19  0.14  0.00  0.00  0.00  0.00
 1988 285   284   187     2  0.87 120.2   322  3606 24036  1711 27964  3928  4484 0.860     0     0 0.000 0.000 0.000  2.79  0.00 270.0  0.00  0.00 0.000  0.65  3.12  4.01  3.36  1.40  0.19  0.14  0.00  0.00  0.00  0.00
 1988 286   285   188     2  0.82 120.6   304  3606 24127  1711 28036  3910  4502 0.861     0     0 0.000 0.000 0.005  2.77  0.00 270.0  0.00  0.00 0.000  0.65  3.12  4.01  3.36  1.40  0.19  0.14  0.00  0.00  0.00  0.00
 1988 287   286   189     2  0.77 120.8   286  3606 24163  1711 28055  3892  4520 0.861     0     0 0.000 0.000 0.013  2.78  0.00 270.0  0.00  0.00 0.000  0.65  3.12  4.01  3.36  1.40  0.19  0.14  0.00  0.00  0.00  0.00
 1988 288   287   190     2  0.73 121.1   270  3606 24229  1711 28105  3876  4536 0.862     0     0 0.000 0.000 0.006  2.77  0.00 270.0  0.00  0.00 0.000  0.65  3.12  4.01  3.36  1.40  0.19  0.14  0.00  0.00  0.00  0.00
 1988 289   288   191     2  0.69 121.4   254  3606 24279  1711 28139  3860  4552 0.863     0     0 0.000 0.000 0.009  2.78  0.00 270.0  0.00  0.00 0.000  0.65  3.12  4.01  3.36  1.40  0.19  0.14  0.00  0.00  0.00  0.00
 1988 290   289   192     2  0.65 121.6   239  3606 24314  1711 28160  3845  4567 0.863     0     0 0.000 0.000 0.002  2.78  0.00 270.0  0.00  0.00 0.000  0.65  3.12  4.01  3.36  1.40  0.19  0.14  0.00  0.00  0.00  0.00
 1988 291   290   193     5  0.65 121.6   239  3606 24314  1711 28160  3845  4567 0.863     0     0 0.000 0.000 0.002  2.78  0.00 270.0  0.00  0.00 0.000  0.65  3.12  4.01  3.36  1.40  0.19  0.14  0.00  0.00  0.00  0.00
 1988 292   291   194     5  0.65 121.6   239  3606 24314  1711 28160  3845  4567 0.863     0     0 0.000 0.000 0.002  2.78  0.00 270.0  0.00  0.00 0.000  0.65  3.12  4.01  3.36  1.40  0.19  0.14  0.00  0.00  0.00  0.00
 1988 293   292   195     5  0.65 121.6   239  3606 24314  1711 28160  3845  4567 0.863     0     0 0.000 0.000 0.002  2.78  0.00 270.0  0.00  0.00 0.000  0.65  3.12  4.01  3.36  1.40  0.19  0.14  0.00  0.00  0.00  0.00
 1988 294   293   196     5  0.65 121.6   239  3606 24314  1711 28160  3845  4567 0.863     0     0 0.000 0.000 0.002  2.78  0.00 270.0  0.00  0.00 0.000  0.65  3.12  4.01  3.36  1.40  0.19  0.14  0.00  0.00  0.00  0.00
 1988 295   294   197     5  0.65 121.6   239  3606 24314  1711 28160  3845  4567 0.863     0     0 0.000 0.000 0.002  2.78  0.00 270.0  0.00  0.00 0.000  0.65  3.12  4.01  3.36  1.40  0.19  0.14  0.00  0.00  0.00  0.00
 1988 296   295   198     5  0.65 121.6   239  3606 24314  1711 28160  3845  4567 0.863     0     0 0.000 0.000 0.002  2.78  0.00 270.0  0.00  0.00 0.000  0.65  3.12  4.01  3.36  1.40  0.19  0.14  0.00  0.00  0.00  0.00
 1988 297   296   199     5  0.65 121.6   239  3606 24314  1711 28160  3845  4567 0.863     0     0 0.000 0.000 0.002  2.78  0.00 270.0  0.00  0.00 0.000  0.65  3.12  4.01  3.36  1.40  0.19  0.14  0.00  0.00  0.00  0.00
 1988 298   297   200     5  0.65 121.6   239  3606 24314  1711 28160  3845  4567 0.863     0     0 0.000 0.000 0.002  2.78  0.00 270.0  0.00  0.00 0.000  0.65  3.12  4.01  3.36  1.40  0.19  0.14  0.00  0.00  0.00  0.00
 1988 299   298   201     5  0.65 121.6   239  3606 24314  1711 28160  3845  4567 0.863     0     0 0.000 0.000 0.002  2.78  0.00 270.0  0.00  0.00 0.000  0.65  3.12  4.01  3.36  1.40  0.19  0.14  0.00  0.00  0.00  0.00
 1988 300   299   202     5  0.65 121.6   239  3606 24314  1711 28160  3845  4567 0.863     0     0 0.000 0.000 0.002  2.78  0.00 270.0  0.00  0.00 0.000  0.65  3.12  4.01  3.36  1.40  0.19  0.14  0.00  0.00  0.00  0.00
 1988 301   300   203     5  0.65 121.6   239  3606 24314  1711 28160  3845  4567 0.863     0     0 0.000 0.000 0.002  2.78  0.00 270.0  0.00  0.00 0.000  0.65  3.12  4.01  3.36  1.40  0.19  0.14  0.00  0.00  0.00  0.00
 1988 302   301   204     5  0.65 121.6   239  3606 24314  1711 28160  3845  4567 0.863     0     0 0.000 0.000 0.002  2.78  0.00 270.0  0.00  0.00 0.000  0.65  3.12  4.01  3.36  1.40  0.19  0.14  0.00  0.00  0.00  0.00
 1988 303   302   205     5  0.65 121.6   239  3606 24314  1711 28160  3845  4567 0.863     0     0 0.000 0.000 0.002  2.78  0.00 270.0  0.00  0.00 0.000  0.65  3.12  4.01  3.36  1.40  0.19  0.14  0.00  0.00  0.00  0.00
