*GROWTH ASPECTS OUTPUT FILE

*RUN   1        :  IRRIGATED, COBB         
 MODEL          : CRGRO020 - SOYBEAN   
 EXPERIMENT     : UFGA8101 SB     UFGA8101SB COBB, VEG. & REPROD. STRESS 3I     
 TREATMENT  1   :  IRRIGATED, COBB         

@YEAR DOY   DAS   DAP  L#SD  GSTD  LAID  LWAD  SWAD  GWAD  RWAD  CWAD  G#AD   GWGD  HIAD  PWAD  P#AD  WSPD  WSGD  NSTD  LN%D  SH%D  HIPD  PWDD  PWTD  SLAD  CHTD  CWID  NWAD  RDPD  RL1D  RL2D  RL3D  RL4D  RL5D  RL6D  RL7D  RL8D  RL9D  RL10   CDAD   LDAD   SDAD
 1981 177     0     0   0.0     0  0.00     0     0     0     0     0     0    0.0 0.000     0     0 0.000 0.000 0.000  0.00  0.00  0.00     0     0 192.9  0.00  0.00   0.0  0.00  0.00  0.00  0.00  0.00  0.00  0.00  0.00  0.00  0.00  0.00      0      0      0
 1981 178     1     1   0.0     0  0.00     0     0     0     0     0     0    0.0 0.000     0     0 0.000 0.000 0.000  0.00  0.00  0.00     0     0 192.9  0.00  0.00   0.0  0.00  0.00  0.00  0.00  0.00  0.00  0.00  0.00  0.00  0.00  0.00      0      0      0
 1981 179     2     2   0.0     0  0.00     0     0     0     0     0     0    0.0 0.000     0     0 0.000 0.000 0.000  0.00  0.00  0.00     0     0 192.9  0.00  0.00   0.0  0.00  0.00  0.00  0.00  0.00  0.00  0.00  0.00  0.00  0.00  0.00      0      0      0
 1981 180     3     3   0.0     0  0.00     0     0     0     0     0     0    0.0 0.000     0     0 0.000 0.000 0.000  0.00  0.00  0.00     0     0 192.9  0.00  0.00   0.0  0.00  0.00  0.00  0.00  0.00  0.00  0.00  0.00  0.00  0.00  0.00      0      0      0
 1981 181     4     4   0.0     0  0.00     0     0     0     0     0     0    0.0 0.000     0     0 0.000 0.000 0.000  0.00  0.00  0.00     0     0 192.9  0.00  0.00   0.0  0.00  0.00  0.00  0.00  0.00  0.00  0.00  0.00  0.00  0.00  0.00      0      0      0
 1981 182     5     5   0.0     0  0.02    13     3     0    16    16     0    0.0 0.000     0     0 0.000 0.000 0.000  5.70  0.00  0.00     0     0 193.0  0.03  0.03   0.0  0.27  0.05  0.05  0.03  0.00  0.00  0.00  0.00  0.00  0.00  0.00      0      0      0
 1981 183     6     6   0.1     0  0.03    13     3     0    19    16     0    0.0 0.000     0     0 0.000 0.000 0.896  5.67  0.00  0.00     0     0 196.8  0.03  0.03   0.0  0.29  0.05  0.06  0.04  0.00  0.00  0.00  0.00  0.00  0.00  0.00      0      0      0
 1981 184     7     7   0.3     0  0.03    14     3     0    23    17     0    0.0 0.000     0     0 0.000 0.000 0.787  5.65  0.00  0.00     0     0 203.2  0.03  0.04   0.0  0.31  0.04  0.08  0.05  0.00  0.00  0.00  0.00  0.00  0.00  0.00      0      0      0
 1981 185     8     8   0.4     0  0.03    14     3     0    27    17     0    0.0 0.000     0     0 0.000 0.000 0.903  5.63  0.00  0.00     0     0 206.1  0.04  0.04   0.0  0.34  0.04  0.10  0.06  0.00  0.00  0.00  0.00  0.00  0.00  0.00      0      0      0
 1981 186     9     9   0.6     0  0.03    15     3     0    30    18     0    0.0 0.000     0     0 0.000 0.000 0.484  5.63  0.00  0.00     0     0 218.3  0.04  0.05   0.0  0.36  0.04  0.11  0.06  0.00  0.00  0.00  0.00  0.00  0.00  0.00      0      0      0
 1981 187    10    10   0.7     0  0.04    16     3     0    34    19     0    0.0 0.000     0     0 0.000 0.000 0.637  5.63  0.00  0.00     0     0 226.3  0.05  0.05   0.0  0.38  0.04  0.12  0.07  0.01  0.00  0.00  0.00  0.00  0.00  0.00      0      0      0
 1981 188    11    11   0.9     0  0.04    17     4     0    38    21     0    0.0 0.000     0     0 0.000 0.000 0.448  5.63  0.00  0.00     0     0 237.1  0.06  0.06   0.0  0.40  0.04  0.14  0.08  0.01  0.00  0.00  0.00  0.00  0.00  0.00      0      0      0
 1981 189    12    12   1.2     0  0.05    20     4     0    39    25     0    0.0 0.000     0     0 0.000 0.000 0.140  5.55  0.00  0.00     0     0 263.0  0.06  0.07   0.0  0.43  0.05  0.14  0.08  0.01  0.00  0.00  0.00  0.00  0.00  0.00      0      0      0
 1981 190    13    13   1.5     0  0.07    25     5     0    40    30     0    0.0 0.000     0     0 0.000 0.000 0.000  5.38  0.00  0.00     0     0 281.7  0.08  0.08   0.0  0.45  0.05  0.14  0.08  0.01  0.00  0.00  0.00  0.00  0.00  0.00      0      0      0
 1981 191    14    14   1.8     0  0.09    32     5     0    41    37     0    0.0 0.000     0     0 0.000 0.000 0.000  5.29  0.00  0.00     0     0 293.5  0.09  0.10   0.0  0.47  0.05  0.15  0.08  0.01  0.00  0.00  0.00  0.00  0.00  0.00      0      0      0
 1981 192    15    15   2.1     0  0.12    40     6     0    43    46     0    0.0 0.000     0     0 0.000 0.000 0.000  5.25  0.00  0.00     0     0 302.5  0.11  0.11   0.0  0.49  0.05  0.15  0.08  0.02  0.00  0.00  0.00  0.00  0.00  0.00      0      0      0
 1981 193    16    16   2.4     0  0.15    49     7     0    45    56     0    0.0 0.000     0     0 0.000 0.000 0.000  5.24  0.00  0.00     0     0 312.0  0.12  0.13   0.0  0.52  0.05  0.16  0.09  0.02  0.00  0.00  0.00  0.00  0.00  0.00      1      0      0
 1981 194    17    17   2.6     0  0.19    58     9     0    49    67     0    0.0 0.000     0     0 0.000 0.000 0.000  5.25  0.00  0.00     0     0 322.5  0.14  0.14   0.0  0.54  0.06  0.17  0.09  0.02  0.00  0.00  0.00  0.00  0.00  0.00      1      0      0
 1981 195    18    18   2.9     0  0.22    68    12     0    54    81     0    0.0 0.000     0     0 0.000 0.000 0.000  5.27  0.00  0.00     0     0 325.8  0.15  0.16   0.0  0.56  0.07  0.18  0.10  0.02  0.01  0.00  0.00  0.00  0.00  0.00      1      1      0
 1981 196    19    19   3.2     0  0.27    83    14     0    58    97     0    0.0 0.000     0     0 0.000 0.035 0.000  5.34  0.00  0.00     0     0 326.2  0.17  0.18   0.0  0.59  0.07  0.19  0.10  0.03  0.01  0.00  0.00  0.00  0.00  0.00      1      1      0
 1981 197    20    20   3.6     0  0.33    96    18     0    62   114     0    0.0 0.000     0     0 0.000 0.000 0.000  5.34  0.00  0.00     0     0 343.6  0.18  0.20   0.0  0.61  0.07  0.20  0.11  0.03  0.02  0.00  0.00  0.00  0.00  0.00      2      1      1
 1981 198    21    21   3.9     0  0.39   107    22     0    68   130     0    0.0 0.000     0     0 0.000 0.000 0.000  5.34  0.00  0.00     0     0 362.3  0.20  0.21   0.0  0.64  0.09  0.22  0.11  0.04  0.02  0.00  0.00  0.00  0.00  0.00      2      1      1
 1981 199    22    22   4.2     0  0.46   121    28     0    75   149     0    0.0 0.000     0     0 0.000 0.000 0.000  5.36  0.00  0.00     0     0 376.0  0.22  0.23   0.0  0.66  0.10  0.23  0.12  0.04  0.03  0.00  0.00  0.00  0.00  0.00      2      2      1
 1981 200    23    23   4.4     0  0.53   140    36     0    84   176     0    0.0 0.000     0     0 0.000 0.000 0.000  5.39  0.00  0.00     0     0 378.5  0.23  0.25   0.0  0.68  0.10  0.25  0.13  0.05  0.03  0.00  0.00  0.00  0.00  0.00      3      2      1
 1981 201    24    24   4.7     0  0.60   156    47     0    95   203     0    0.0 0.000     0     0 0.000 0.000 0.000  5.39  0.00  0.00     0     0 385.8  0.25  0.27   0.0  0.70  0.10  0.28  0.14  0.06  0.04  0.01  0.00  0.00  0.00  0.00      4      2      1
 1981 202    25    25   5.0     0  0.68   174    60     0   107   235     0    0.0 0.000     0     0 0.000 0.000 0.000  5.40  0.00  0.00     0     0 388.1  0.26  0.28   0.0  0.73  0.10  0.31  0.16  0.07  0.05  0.01  0.00  0.00  0.00  0.00      4      3      2
 1981 203    26    26   5.3     0  0.76   192    74     0   119   267     0    0.0 0.000     0     0 0.000 0.000 0.000  5.40  0.00  0.00     0     0 395.7  0.28  0.30   0.0  0.75  0.10  0.33  0.17  0.07  0.06  0.02  0.00  0.00  0.00  0.00      5      3      2
 1981 204    27    27   5.5     0  0.78   206    84     0   148   290     0    0.0 0.000     0     0 0.089 0.393 0.000  5.49  0.00  0.00     0     0 379.9  0.29  0.31   0.0  0.77  0.16  0.39  0.20  0.09  0.08  0.03  0.00  0.00  0.00  0.00      6      4      2
 1981 205    28    28   5.8     0  0.87   230   103     0   164   334     0    0.0 0.000     0     0 0.000 0.000 0.000  5.49  0.00  0.00     0     0 377.4  0.30  0.32   0.0  0.80  0.19  0.42  0.21  0.10  0.08  0.04  0.00  0.00  0.00  0.00      7      4      3
 1981 206    29    29   6.0     0  0.92   253   121     0   191   374     0    0.0 0.000     0     0 0.000 0.176 0.000  5.53  0.00  0.00     0     0 364.9  0.32  0.34   0.0  0.82  0.19  0.47  0.24  0.12  0.10  0.06  0.00  0.00  0.00  0.00      8      5      3
 1981 207    30    30   6.3     0  1.01   280   144     0   211   425     0    0.0 0.000     0     0 0.000 0.031 0.000  5.54  0.00  0.00     0     0 360.4  0.33  0.35   0.0  0.84  0.18  0.51  0.26  0.13  0.11  0.07  0.00  0.00  0.00  0.00      9      6      3
 1981 208    31    31   6.5     0  1.05   302   163     0   244   465     0    0.0 0.000     0     0 0.000 0.245 0.000  5.58  0.00  0.00     0     0 348.5  0.34  0.37   0.0  0.87  0.24  0.57  0.29  0.15  0.13  0.09  0.00  0.00  0.00  0.00     13      8      5
 1981 209    32    32   6.8     0  1.16   334   191     0   264   525     0    0.0 0.000     0     0 0.000 0.000 0.000  5.56  0.00  0.00     0     0 346.1  0.36  0.38   0.0  0.89  0.27  0.61  0.31  0.16  0.14  0.11  0.00  0.00  0.00  0.00     14      9      5
 1981 210    33    33   7.1     0  1.28   366   221     0   284   588     0    0.0 0.000     0     0 0.000 0.000 0.000  5.55  0.00  0.00     0     0 348.6  0.37  0.40   0.0  0.91  0.26  0.65  0.33  0.17  0.16  0.13  0.00  0.00  0.00  0.00     16     10      6
 1981 211    34    34   7.4     0  1.41   391   246     0   299   636     0    0.0 0.000     0     0 0.000 0.000 0.000  5.52  0.00  0.00     0     0 360.5  0.39  0.42   0.0  0.93  0.29  0.67  0.34  0.18  0.16  0.14  0.00  0.00  0.00  0.00     18     11      7
 1981 212    35    35   7.7     0  1.54   426   281     0   321   706     0    0.0 0.000     0     0 0.000 0.000 0.000  5.51  0.00  0.00     0     0 363.0  0.41  0.44   0.0  0.96  0.33  0.70  0.36  0.19  0.17  0.15  0.00  0.00  0.00  0.00     20     12      7
 1981 213    36    36   8.0     0  1.69   460   318     0   342   778     0    0.0 0.000     0     0 0.000 0.000 0.000  5.50  0.00  0.00     0     0 367.1  0.42  0.46   0.0  0.98  0.37  0.74  0.37  0.20  0.18  0.17  0.00  0.00  0.00  0.00     22     14      8
 1981 214    37    37   8.3     0  1.84   501   364     0   368   866     0    0.0 0.000     0     0 0.000 0.000 0.000  5.49  0.00  0.00     0     0 366.8  0.44  0.47   0.0  1.00  0.37  0.79  0.40  0.21  0.20  0.19  0.01  0.00  0.00  0.00     24     15      9
 1981 215    38    38   8.6     0  1.99   543   414     0   392   957     0    0.0 0.000     0     0 0.000 0.000 0.000  5.48  0.00  0.00     0     0 365.5  0.46  0.49   0.0  1.03  0.42  0.83  0.42  0.22  0.21  0.21  0.01  0.00  0.00  0.00     27     17     10
 1981 216    39    39   8.9     0  2.14   584   465     0   416  1049     0    0.0 0.000     0     0 0.000 0.000 0.000  5.46  0.00  0.00     0     0 365.8  0.48  0.51   0.0  1.05  0.46  0.86  0.43  0.23  0.22  0.22  0.01  0.00  0.00  0.00     30     19     11
 1981 217    40    40   9.2     0  2.30   632   527     0   443  1160     0    0.0 0.000     0     0 0.000 0.000 0.000  5.46  0.00  0.00     0     0 363.6  0.49  0.53   0.0  1.07  0.51  0.91  0.46  0.25  0.24  0.24  0.02  0.00  0.00  0.00     33     21     12
 1981 218    41    41   9.5     0  2.46   674   585     0   465  1258     0    0.0 0.000     0     0 0.000 0.000 0.000  5.44  0.00  0.00     0     0 364.3  0.51  0.55   0.0  1.09  0.55  0.94  0.47  0.26  0.25  0.25  0.02  0.00  0.00  0.00     36     23     13
 1981 219    42    42   9.8     0  2.63   724   656     0   491  1380     0    0.0 0.000     0     0 0.000 0.000 0.000  5.43  0.00  0.00     0     0 363.0  0.53  0.56   0.0  1.12  0.60  0.98  0.49  0.27  0.26  0.27  0.03  0.00  0.00  0.00     40     25     15
 1981 220    43    43  10.1     0  2.79   768   724     0   512  1492     0    0.0 0.000     0     0 0.000 0.000 0.000  5.42  0.00  0.00     0     0 363.1  0.54  0.58   0.0  1.14  0.60  1.02  0.51  0.28  0.27  0.29  0.03  0.00  0.00  0.00     44     28     16
 1981 221    44    44  10.4     0  2.96   814   796     0   533  1610     0    0.0 0.000     0     0 0.000 0.000 0.000  5.41  0.00  0.00     0     0 363.7  0.56  0.60   0.0  1.16  0.64  1.05  0.53  0.29  0.28  0.30  0.04  0.00  0.00  0.00     48     30     18
 1981 222    45    45  10.6     0  3.14   868   883     0   559  1751     0    0.0 0.000     0     0 0.000 0.000 0.000  5.40  0.00  0.00     0     0 361.5  0.58  0.62   0.0  1.19  0.66  1.09  0.55  0.30  0.29  0.32  0.04  0.00  0.00  0.00     52     33     19
 1981 223    46    46  10.9     0  3.30   911   954     0   577  1865     0    0.0 0.000     0     0 0.000 0.000 0.000  5.38  0.00  0.00     0     0 362.4  0.59  0.64   0.0  1.21  0.70  1.12  0.56  0.31  0.30  0.33  0.05  0.00  0.00  0.00     57     36     21
 1981 224    47    47  11.2     0  3.50   967  1044     0   604  2011     0    0.0 0.000     0     0 0.000 0.000 0.000  5.37  0.00  0.00     0     0 362.2  0.61  0.65   0.0  1.23  0.74  1.16  0.58  0.32  0.31  0.35  0.06  0.00  0.00  0.00     63     40     23
 1981 225    48    48  11.5     1  3.68  1011  1119     0   624  2131     0    0.0 0.000     0     0 0.000 0.000 0.000  5.35  0.00  0.00     0     0 364.3  0.63  0.67   0.0  1.25  0.78  1.19  0.59  0.33  0.32  0.36  0.06  0.00  0.00  0.00     68     43     25
 1981 226    49    49  11.8     1  3.87  1063  1205     0   646  2267     0    0.0 0.000     0     0 0.000 0.000 0.000  5.36  0.00  0.00     0     0 364.4  0.64  0.69   0.0  1.28  0.82  1.22  0.61  0.34  0.33  0.38  0.07  0.00  0.00  0.00     73     46     27
 1981 227    50    50  12.1     1  4.05  1114  1292     0   669  2406     0    0.0 0.000     0     0 0.000 0.000 0.000  5.35  0.00  0.00     0     0 363.4  0.66  0.70   0.0  1.30  0.86  1.25  0.63  0.35  0.34  0.39  0.07  0.00  0.00  0.00     77     49     28
 1981 228    51    51  12.4     1  4.21  1168  1384     0   694  2551     0    0.0 0.000     0     0 0.000 0.000 0.000  5.35  0.00  0.00     0     0 360.3  0.68  0.72   0.0  1.32  0.90  1.29  0.65  0.36  0.35  0.40  0.08  0.00  0.00  0.00     82     52     30
 1981 229    52    52  12.7     1  4.37  1220  1477     0   717  2697     0    0.0 0.000     0     0 0.000 0.000 0.000  5.34  0.00  0.00     0     0 358.0  0.69  0.74   0.0  1.34  0.95  1.32  0.66  0.37  0.37  0.42  0.09  0.01  0.00  0.00     87     55     32
 1981 230    53    53  13.0     1  4.53  1273  1572     0   740  2845     0    0.0 0.000     0     0 0.000 0.000 0.000  5.33  0.00  0.00     0     0 355.9  0.71  0.75   0.0  1.37  0.99  1.36  0.68  0.38  0.38  0.43  0.09  0.01  0.00  0.00     93     59     34
 1981 231    54    54  13.3     1  4.68  1319  1657     0   760  2976     0    0.0 0.000     0     0 0.000 0.000 0.000  5.32  0.00  0.00     0     0 354.9  0.73  0.76   0.0  1.39  1.02  1.39  0.69  0.39  0.38  0.45  0.10  0.01  0.00  0.00     99     63     36
 1981 232    55    55  13.6     1  4.79  1341  1709     0   768  3050     0    0.0 0.000     0     0 0.000 0.000 0.000  5.31  0.00  0.00     0     0 357.1  0.75  0.76   0.0  1.41  1.04  1.40  0.70  0.40  0.39  0.45  0.10  0.01  0.00  0.00    113     71     41
 1981 233    56    56  13.8     1  4.88  1358  1759     0   776  3117     0    0.0 0.000     0     0 0.000 0.000 0.000  5.31  0.00  0.00     0     0 359.0  0.78  0.76   0.0  1.44  1.05  1.41  0.70  0.40  0.39  0.46  0.10  0.01  0.00  0.00    133     84     49
 1981 234    57    57  14.1     1  5.00  1395  1834     0   791  3230     0    0.0 0.000     0     0 0.000 0.000 0.000  5.31  0.00  0.00     0     0 358.2  0.80  0.76   0.0  1.46  1.08  1.43  0.71  0.41  0.40  0.47  0.11  0.01  0.00  0.00    140     88     51
 1981 235    58    58  14.4     1  5.11  1434  1915     0   806  3349     0    0.0 0.000     0     0 0.000 0.000 0.000  5.30  0.00  0.00     0     0 356.1  0.82  0.76   0.0  1.48  1.11  1.45  0.72  0.41  0.40  0.47  0.11  0.02  0.00  0.00    147     93     54
 1981 236    59    59  14.7     1  5.21  1473  1997     0   822  3469     0    0.0 0.000     0     0 0.000 0.000 0.000  5.28  0.00  0.00     0     0 353.4  0.83  0.76   0.0  1.50  1.14  1.47  0.73  0.42  0.41  0.48  0.12  0.02  0.00  0.00    154     97     57
 1981 237    60    60  15.0     1  5.30  1524  2103     0   846  3627     0    0.0 0.000     0     0 0.000 0.000 0.000  5.28  0.00  0.00     0     0 347.5  0.85  0.76   0.0  1.53  1.18  1.50  0.75  0.43  0.42  0.50  0.12  0.02  0.00  0.00    161    102     59
 1981 238    61    61  15.3     1  5.38  1571  2205     0   868  3776     0    0.0 0.000     0     0 0.000 0.000 0.000  5.27  0.00  0.00     0     0 342.7  0.86  0.76   0.0  1.55  1.21  1.53  0.77  0.44  0.43  0.51  0.13  0.03  0.00  0.00    169    107     62
 1981 239    62    62  15.6     1  5.46  1614  2302     0   887  3917     0    0.0 0.000     0     0 0.000 0.000 0.000  5.25  0.00  0.00     0     0 338.4  0.88  0.76   0.0  1.57  1.25  1.56  0.78  0.45  0.44  0.52  0.13  0.03  0.00  0.00    178    112     65
 1981 240    63    63  15.9     1  5.27  1553  2280     0   878  3833     0    0.0 0.000     0     0 0.000 0.000 0.000  5.38  0.00  0.00     0     0 339.2  0.92  0.76   0.0  1.59  1.24  1.54  0.77  0.44  0.43  0.52  0.13  0.03  0.00  0.00    284    180    104
 1981 241    64    64  16.1     3  5.34  1590  2360     0   891  3951     0    0.0 0.000     0     0 0.000 0.000 0.000  5.42  0.00  0.00     0     0 335.7  0.94  0.76   0.0  1.62  1.25  1.56  0.78  0.45  0.44  0.52  0.14  0.03  0.00  0.00    295    186    108
 1981 242    65    65  16.1     3  5.37  1619  2446     0   906  4065     0    0.0 0.000     0     0 0.000 0.000 0.000  5.41  0.00  0.00     0     0 331.7  0.95  0.76   0.0  1.64  1.28  1.58  0.79  0.45  0.45  0.53  0.14  0.03  0.00  0.00    313    198    115
 1981 243    66    66  16.1     3  5.40  1651  2533     0   921  4190     0    0.0 0.000     6    61 0.000 0.000 0.000  5.40  0.00  0.00     0     6 327.1  0.97  0.76   0.0  1.66  1.31  1.60  0.80  0.46  0.45  0.54  0.14  0.04  0.00  0.00    327    207    120
 1981 244    67    67  16.1     3  5.43  1686  2627     0   936  4332     0    0.0 0.000    18   139 0.000 0.000 0.000  5.38  0.00  0.00     0    18 321.9  0.98  0.76   0.0  1.68  1.33  1.62  0.81  0.46  0.46  0.55  0.15  0.04  0.00  0.00    337    213    124
 1981 245    68    68  16.1     3  5.45  1722  2723     0   953  4483     0    0.0 0.000    38   221 0.000 0.000 0.000  5.36  0.00  0.01     0    38 316.3  0.98  0.76   0.0  1.70  1.36  1.64  0.82  0.47  0.46  0.56  0.15  0.04  0.00  0.00    346    219    127
 1981 246    69    69  16.1     3  5.46  1754  2812     0   966  4631     0    0.0 0.000    65   305 0.000 0.000 0.000  5.35  0.00  0.01     0    65 311.1  0.98  0.76   0.0  1.73  1.38  1.66  0.83  0.48  0.47  0.57  0.16  0.04  0.01  0.00    356    225    131
 1981 247    70    70  16.1     3  5.46  1780  2894     0   977  4774     0    0.0 0.000   100   390 0.000 0.000 0.000  5.32  0.00  0.02     0   100 306.5  0.98  0.76   0.0  1.75  1.40  1.67  0.84  0.48  0.47  0.58  0.16  0.05  0.01  0.00    367    232    135
 1981 248    71    71  16.1     3  5.44  1797  2960     0   983  4900     0    0.0 0.000   143   480 0.000 0.000 0.000  5.31  0.00  0.03     0   143 302.5  0.98  0.76   0.0  1.77  1.40  1.68  0.84  0.48  0.48  0.58  0.16  0.05  0.01  0.00    383    243    141
 1981 249    72    72  16.1     3  5.36  1787  2993     0   982  4973     0    0.0 0.000   193   540 0.000 0.000 0.000  5.31  0.00  0.04     0   193 299.9  0.98  0.76   0.0  1.79  1.40  1.68  0.84  0.48  0.48  0.58  0.16  0.05  0.01  0.00    421    267    155
 1981 250    73    73  16.1     3  5.34  1805  3056     0   986  5109     0    0.0 0.000   248   615 0.000 0.000 0.000  5.30  0.00  0.05     0   248 296.1  0.98  0.76   0.0  1.80  1.41  1.68  0.84  0.48  0.48  0.58  0.16  0.05  0.01  0.00    432    274    159
 1981 251    74    74  16.1     3  5.32  1822  3123     0   992  5257     0    0.0 0.000   311   704 0.000 0.000 0.000  5.28  0.00  0.06     0   311 291.8  0.98  0.76   0.0  1.80  1.42  1.69  0.84  0.49  0.48  0.58  0.16  0.05  0.01  0.00    443    281    163
 1981 252    75    75  16.1     5  5.28  1834  3180     0   994  5397     0    0.0 0.000   383   797 0.000 0.000 0.000  5.25  0.00  0.07     0   383 288.1  0.98  0.76   0.0  1.80  1.43  1.69  0.84  0.49  0.48  0.59  0.17  0.05  0.01  0.00    455    288    167
 1981 253    76    76  16.1     5  5.22  1829  3211     0   990  5488    86    0.0 0.000   448   883 0.000 0.000 0.000  5.23  0.00  0.08     0   448 285.5  0.98  0.76   0.0  1.80  1.42  1.68  0.84  0.48  0.48  0.58  0.17  0.05  0.01  0.00    490    301    175
 1981 254    77    77  16.1     5  5.18  1833  3248     5   986  5603   199    2.6 0.001   522   953 0.000 0.000 0.000  5.20  1.00  0.09     0   522 282.7  0.98  0.76   0.0  1.80  1.42  1.67  0.83  0.48  0.48  0.58  0.17  0.05  0.01  0.00    522    309    179
 1981 255    78    78  16.1     5  5.13  1833  3280    17   983  5721   319    5.4 0.003   608  1017 0.000 0.000 0.000  5.18  2.85  0.11     0   608 280.1  0.98  0.76   0.0  1.80  1.42  1.66  0.83  0.48  0.47  0.58  0.17  0.05  0.01  0.00    554    317    184
 1981 256    79    79  16.1     5  5.09  1830  3301    37   977  5839   442    8.4 0.006   708  1064 0.000 0.000 0.000  5.15  5.24  0.12     0   708 278.2  0.98  0.76   0.0  1.80  1.41  1.65  0.82  0.48  0.47  0.58  0.16  0.05  0.01  0.00    586    326    189
 1981 257    80    80  16.1     5  5.04  1822  3312    64   969  5934   703    9.2 0.011   800  1130 0.000 0.000 0.000  5.12  8.04  0.13     0   800 276.8  0.98  0.76   0.0  1.80  1.40  1.64  0.82  0.47  0.47  0.57  0.16  0.05  0.01  0.00    635    334    194
 1981 258    81    81  16.1     5  4.99  1804  3299   107   954  6034   794   13.5 0.018   931  1218 0.000 0.000 0.000  5.09 11.49  0.15     0   931 276.6  0.98  0.76   0.0  1.80  1.38  1.61  0.81  0.47  0.46  0.56  0.16  0.05  0.01  0.00    660    343    199
 1981 259    82    82  16.1     5  4.88  1760  3260   156   936  6032   908   17.1 0.026  1012  1295 0.000 0.000 0.000  5.08 15.37  0.17     0  1012 277.1  0.98  0.76   0.0  1.80  1.36  1.58  0.79  0.46  0.45  0.55  0.16  0.05  0.01  0.00    721    373    216
 1981 260    83    83  16.1     5  4.81  1734  3231   215   918  6087  1046   20.5 0.035  1122  1336 0.000 0.000 0.000  5.03 19.15  0.18     0  1122 277.6  0.98  0.76   0.0  1.80  1.33  1.56  0.78  0.45  0.44  0.54  0.16  0.05  0.01  0.00    753    383    222
 1981 261    84    84  16.1     5  4.75  1708  3203   285   905  6180  1190   23.9 0.046  1269  1397 0.000 0.000 0.000  4.97 22.43  0.21     0  1269 278.0  0.98  0.76   0.0  1.80  1.31  1.54  0.77  0.44  0.44  0.54  0.15  0.05  0.01  0.00    784    394    228
 1981 262    85    85  16.1     5  4.68  1682  3178   357   894  6262  1344   26.6 0.057  1402  1469 0.000 0.000 0.000  4.91 25.46  0.22     0  1402 278.4  0.98  0.76   0.0  1.80  1.30  1.52  0.76  0.44  0.43  0.53  0.15  0.05  0.01  0.00    818    404    234
 1981 263    86    86  16.1     5  4.62  1657  3152   432   883  6350  1344   32.2 0.068  1541  1524 0.000 0.000 0.000  4.85 28.07  0.24     0  1541 278.7  0.98  0.76   0.0  1.80  1.29  1.50  0.75  0.43  0.43  0.52  0.15  0.05  0.01  0.00    835    414    240
 1981 264    87    87  16.1     5  4.52  1620  3119   521   870  6361  1476   35.3 0.082  1623  1553 0.000 0.000 0.000  4.80 32.08  0.26     0  1623 279.2  0.98  0.76   0.0  1.80  1.27  1.48  0.74  0.43  0.42  0.52  0.15  0.05  0.01  0.00    884    435    252
 1981 265    88    88  16.1     5  4.44  1588  3086   616   854  6425  1602   38.5 0.096  1750  1586 0.000 0.000 0.000  4.73 35.21  0.27     0  1750 279.7  0.98  0.76   0.0  1.80  1.25  1.46  0.73  0.42  0.42  0.51  0.15  0.05  0.01  0.00    918    448    260
 1981 266    89    89  16.1     5  4.37  1558  3055   720   839  6494  1855   38.8 0.111  1880  1637 0.000 0.000 0.000  4.65 38.27  0.29     0  1880 280.2  0.98  0.76   0.0  1.80  1.23  1.43  0.72  0.41  0.41  0.50  0.14  0.05  0.01  0.00    962    460    267
 1981 267    90    90  16.1     5  4.29  1527  3024   840   824  6560  2009   41.8 0.128  2009  1704 0.000 0.000 0.000  4.57 41.81  0.31     0  2009 280.8  0.98  0.76   0.0  1.80  1.21  1.41  0.70  0.41  0.40  0.49  0.14  0.05  0.01  0.00    993    472    274
 1981 268    91    91  16.1     5  4.21  1496  2994   974   810  6637  2137   45.6 0.147  2147  1762 0.000 0.000 0.000  4.48 45.34  0.32     0  2147 281.3  0.98  0.76   0.0  1.80  1.19  1.39  0.69  0.40  0.40  0.48  0.14  0.04  0.01  0.00   1023    485    281
 1981 269    92    92  16.1     5  4.13  1465  2964  1104   795  6688  2166   51.0 0.165  2259  1799 0.000 0.000 0.000  4.38 48.85  0.34     0  2259 281.8  0.98  0.76   0.0  1.80  1.17  1.36  0.68  0.39  0.39  0.48  0.14  0.04  0.01  0.00   1049    497    288
 1981 270    93    93  16.1     5  4.05  1434  2933  1247   782  6771  2166   57.6 0.184  2404  1721 0.000 0.000 0.000  4.29 51.89  0.35     0  2404 282.3  0.98  0.76   0.0  1.80  1.15  1.34  0.67  0.39  0.38  0.47  0.13  0.04  0.01  0.00   1069    510    296
 1981 271    94    94  16.1     5  3.97  1403  2903  1390   768  6848  2166   64.2 0.203  2542  1696 0.000 0.000 0.000  4.19 54.67  0.37     0  2542 282.9  0.98  0.76   0.0  1.80  1.13  1.32  0.66  0.38  0.38  0.46  0.13  0.04  0.01  0.00   1089    523    303
 1981 272    95    95  16.1     5  3.89  1372  2873  1531   756  6920  2188   70.0 0.221  2674  1665 0.000 0.000 0.000  4.08 57.24  0.39     0  2674 283.4  0.98  0.76   0.0  1.80  1.11  1.30  0.65  0.38  0.37  0.45  0.13  0.04  0.01  0.00   1114    535    310
 1981 273    96    96  16.1     5  3.81  1343  2846  1675   742  6996  2188   76.6 0.239  2807  1668 0.000 0.000 0.000  3.98 59.68  0.40     0  2807 283.9  0.98  0.76   0.0  1.80  1.09  1.28  0.64  0.37  0.36  0.45  0.13  0.04  0.01  0.00   1134    547    317
 1981 274    97    97  16.1     5  3.74  1315  2821  1819   730  7076  2188   83.2 0.257  2940  1582 0.000 0.000 0.000  3.87 61.88  0.42     0  2940 284.3  0.98  0.76   0.0  1.80  1.08  1.26  0.63  0.36  0.36  0.44  0.13  0.04  0.01  0.00   1152    559    324
 1981 275    98    98  16.1     5  3.67  1288  2797  1958   717  7153  2188   89.5 0.274  3069  1495 0.000 0.000 0.000  3.76 63.81  0.43     0  3069 284.8  0.98  0.76   0.0  1.80  1.06  1.24  0.62  0.36  0.35  0.43  0.12  0.04  0.01  0.00   1169    570    331
 1981 276    99    99  16.1     5  3.60  1263  2775  2087   707  7225  2188   95.4 0.289  3188  1412 0.000 0.000 0.000  3.66 65.46  0.44     0  3188 285.2  0.98  0.76   0.0  1.80  1.05  1.22  0.61  0.35  0.35  0.43  0.12  0.04  0.01  0.00   1186    580    336
 1981 277   100   100  16.1     5  3.54  1239  2753  2208   696  7291  2188  100.9 0.303  3300  1334 0.000 0.000 0.000  3.56 66.91  0.45     0  3300 285.6  0.98  0.76   0.0  1.80  1.03  1.20  0.60  0.35  0.34  0.42  0.12  0.04  0.01  0.00   1201    590    342
 1981 278   101   101  16.1     5  3.48  1216  2732  2330   684  7361  2188  106.5 0.317  3413  1334 0.000 0.000 0.000  3.46 68.27  0.46     0  3413 286.1  0.98  0.76   0.0  1.80  1.01  1.19  0.59  0.34  0.34  0.41  0.12  0.04  0.01  0.00   1216    599    348
 1981 279   102   102  16.1     5  3.42  1194  2712  2446   674  7428  2188  111.8 0.329  3521  1267 0.000 0.000 0.000  3.36 69.47  0.47     0  3521 286.5  0.98  0.76   0.0  1.80  0.99  1.17  0.58  0.34  0.33  0.41  0.12  0.04  0.01  0.00   1230    608    353
 1981 280   103   103  16.1     5  3.37  1174  2693  2556   663  7491  2188  116.8 0.341  3624  1205 0.000 0.000 0.000  3.27 70.54  0.48     0  3624 287.0  0.98  0.76   0.0  1.80  0.97  1.15  0.57  0.33  0.33  0.40  0.12  0.04  0.01  0.00   1243    616    357
 1981 281   104   104  16.1     5  3.32  1154  2673  2635   651  7522  2188  120.5 0.350  3695  1151 0.000 0.000 0.000  3.17 71.31  0.49     0  3695 287.6  0.98  0.76   0.0  1.80  0.95  1.13  0.56  0.33  0.32  0.40  0.11  0.04  0.01  0.00   1255    624    362
 1981 282   105   105  16.1     5  3.27  1136  2655  2722   640  7566  2188  124.4 0.360  3775  1151 0.000 0.000 0.000  3.09 72.10  0.50     0  3775 288.1  0.98  0.76   0.0  1.80  0.94  1.11  0.56  0.32  0.32  0.39  0.11  0.04  0.01  0.00   1266    631    366
 1981 283   106   106  16.1     5  3.23  1118  2638  2811   629  7614  2188  128.5 0.369  3858  1151 0.000 0.000 0.000  3.00 72.86  0.51     0  3858 288.6  0.98  0.76   0.0  1.80  0.92  1.09  0.55  0.32  0.31  0.38  0.11  0.04  0.01  0.00   1277    638    370
 1981 284   107   107  16.1     5  3.19  1102  2620  2860   618  7623  2188  130.7 0.375  3901  1151 0.000 0.000 0.000  2.92 73.32  0.51     0  3901 289.3  0.98  0.76   0.0  1.80  0.91  1.08  0.54  0.31  0.31  0.38  0.11  0.03  0.01  0.00   1287    644    374
 1981 285   108   108  16.1     5  3.15  1088  2607  2945   610  7675  2188  134.6 0.384  3980  1151 0.000 0.000 0.000  2.85 73.98  0.52     0  3980 289.7  0.98  0.76   0.0  1.80  0.90  1.06  0.53  0.31  0.30  0.37  0.11  0.03  0.01  0.00   1296    650    377
 1981 286   109   109  16.1     5  3.12  1075  2594  3022   602  7722  2188  138.2 0.391  4053  1151 0.000 0.000 0.000  2.78 74.57  0.52     0  4053 290.1  0.98  0.76   0.0  1.80  0.88  1.05  0.52  0.30  0.30  0.37  0.11  0.03  0.01  0.00   1304    655    380
 1981 287   110   110  16.1     5  3.09  1062  2582  3094   594  7764  2188  141.4 0.398  4120  1151 0.000 0.000 0.000  2.72 75.09  0.53     0  4120 290.6  0.98  0.76   0.0  1.80  0.87  1.03  0.52  0.30  0.30  0.36  0.10  0.03  0.01  0.00   1312    660    383
 1981 288   111   111  16.1     5  3.06  1051  2570  3163   586  7805  2188  144.6 0.405  4185  1151 0.000 0.000 0.000  2.65 75.57  0.54     0  4185 291.0  0.98  0.76   0.0  1.80  0.85  1.02  0.51  0.29  0.29  0.36  0.10  0.03  0.01  0.00   1319    664    385
 1981 289   112   112  16.1     5  3.03  1040  2559  3216   580  7833  2188  147.0 0.411  4234  1151 0.000 0.000 0.000  2.60 75.94  0.54     0  4234 291.4  0.98  0.76   0.0  1.80  0.85  1.01  0.50  0.29  0.29  0.35  0.10  0.03  0.01  0.00   1325    668    388
 1981 290   113   113  16.1     5  3.01  1030  2548  3272   572  7865  2188  149.6 0.416  4287  1151 0.000 0.000 0.000  2.54 76.32  0.55     0  4287 291.9  0.98  0.76   0.0  1.80  0.84  1.00  0.50  0.29  0.28  0.35  0.10  0.03  0.01  0.00   1331    672    390
 1981 291   114   114  16.1     5  2.98  1020  2537  3326   564  7895  2188  152.0 0.421  4338  1151 0.000 0.000 0.000  2.49 76.68  0.55     0  4338 292.4  0.98  0.76   0.0  1.80  0.82  0.98  0.49  0.28  0.28  0.34  0.10  0.03  0.01  0.00   1337    676    392
 1981 292   115   115  16.1     5  2.96  1011  2527  3374   557  7922  2188  154.3 0.426  4383  1151 0.000 0.000 0.000  2.44 76.99  0.55     0  4383 292.8  0.98  0.76   0.0  1.80  0.81  0.97  0.49  0.28  0.28  0.34  0.10  0.03  0.01  0.00   1342    679    394
 1981 293   116   116  16.1     7  2.94  1003  2518  3407   552  7935  2188  155.7 0.429  4413  1151 0.000 0.000 0.000  2.40 77.21  0.56     0  4413 293.3  0.98  0.76   0.0  1.80  0.80  0.96  0.48  0.28  0.27  0.34  0.10  0.03  0.01  0.00   1346    682    395
 1981 294   117   117  16.1     7  2.34   798  2395  3450   545  7645  2188  157.7 0.451  4453  1151 0.000 0.000 0.000  2.34 77.47  0.58     0  4453 293.8  0.98  0.76   0.0  1.80  0.79  0.95  0.47  0.27  0.27  0.33  0.10  0.03  0.01  0.00   1663    882    512
 1981 295   118   118  16.1     7  1.87   634  2295  3483   536  7413  2188  159.2 0.470  4483  1151 0.000 0.000 0.000  2.29 77.68  0.60     0  4483 294.4  0.98  0.76   0.0  1.80  0.78  0.94  0.47  0.27  0.27  0.33  0.09  0.03  0.01  0.00   1915   1042    604
 1981 296   119   119  16.1     7  1.49   504  2215  3506   528  7224  2188  160.3 0.485  4504  1151 0.000 0.000 0.000  2.24 77.84  0.62     0  4504 295.0  0.98  0.76   0.0  1.80  0.77  0.92  0.46  0.27  0.26  0.32  0.09  0.03  0.01  0.00   2116   1169    678
 1981 297   120   120  16.1     7  1.19   401  2151  3519   520  7068  2188  160.9 0.498  4515  1151 0.000 0.000 0.000  2.20 77.94  0.64     0  4515 295.7  0.98  0.76   0.0  1.80  0.75  0.91  0.45  0.26  0.26  0.32  0.09  0.03  0.01  0.00   2275   1270    736
 1981 298   121   121  16.1     7  0.95   320  2100  3525   512  6939  2188  161.1 0.508  4519  1151 0.000 0.000 0.000  2.18 77.99  0.65     0  4519 296.3  0.98  0.76   0.0  1.80  0.74  0.90  0.45  0.26  0.26  0.31  0.09  0.03  0.01  0.00   2402   1350    783
 1981 299   122   122  16.1     7  0.76   255  2060  3525   503  6834  2188  161.1 0.516  4519  1151 0.000 0.000 0.000  2.18 77.99  0.66     0  4519 296.9  0.98  0.76   0.0  1.80  0.73  0.88  0.44  0.25  0.25  0.31  0.09  0.03  0.01  0.00   2503   1414    820
 1981 300   123   123  16.1     7  0.61   204  2027  3525   495  6750  2188  161.1 0.522  4519  1151 0.000 0.000 0.000  2.19 78.00  0.67     0  4519 297.4  0.98  0.76   0.0  1.80  0.72  0.87  0.43  0.25  0.25  0.30  0.09  0.03  0.01  0.00   2583   1465    850
 1981 301   124   124  16.1     7  0.49   163  2001  3525   489  6682  2188  161.1 0.527  4519  1151 0.000 0.000 0.000  2.19 78.00  0.68     0  4519 297.9  0.98  0.76   0.0  1.80  0.70  0.85  0.43  0.25  0.24  0.30  0.09  0.03  0.01  0.00   2648   1506    873
 1981 302   125   125  16.1     7  0.39   130  1980  3525   482  6628  2188  161.1 0.532  4518  1151 0.000 0.000 0.000  2.20 78.01  0.68     0  4518 298.4  0.98  0.76   0.0  1.80  0.68  0.84  0.42  0.24  0.24  0.29  0.08  0.03  0.01  0.00   2699   1538    892
 1981 303   126   126  16.1     7  0.31   104  1962  3525   474  6584  2188  161.1 0.535  4518  1151 0.000 0.000 0.000  2.20 78.01  0.69     0  4518 298.9  0.98  0.76   0.0  1.80  0.66  0.83  0.41  0.24  0.24  0.29  0.08  0.03  0.01  0.00   2740   1564    907
 1981 304   127   127  16.1     7  0.25    83  1948  3525   469  6549  2188  161.1 0.538  4518  1151 0.000 0.000 0.000  2.20 78.02  0.69     0  4518 299.3  0.98  0.76   0.0  1.80  0.64  0.82  0.41  0.24  0.23  0.29  0.08  0.03  0.01  0.00   2773   1585    919
 1981 305   128   128  16.1     8  0.20    66  1937  3525   463  6521  2188  161.1 0.541  4518  1151 0.000 0.000 0.000  2.21 78.02  0.69     0  4518 299.6  0.98  0.76   0.0  1.80  0.63  0.81  0.40  0.23  0.23  0.28  0.08  0.03  0.01  0.00   2799   1602    929

*RUN   2        :  IRRIGATED, WITH VEGETATI
 MODEL          : CRGRO020 - SOYBEAN   
 EXPERIMENT     : UFGA8101 SB     UFGA8101SB COBB, VEG. & REPROD. STRESS 3I     
 TREATMENT  2   :  IRRIGATED, WITH VEGETATI

@YEAR DOY   DAS   DAP  L#SD  GSTD  LAID  LWAD  SWAD  GWAD  RWAD  CWAD  G#AD   GWGD  HIAD  PWAD  P#AD  WSPD  WSGD  NSTD  LN%D  SH%D  HIPD  PWDD  PWTD  SLAD  CHTD  CWID  NWAD  RDPD  RL1D  RL2D  RL3D  RL4D  RL5D  RL6D  RL7D  RL8D  RL9D  RL10   CDAD   LDAD   SDAD
 1981 177     0     0   0.0     0  0.00     0     0     0     0     0     0    0.0 0.000     0     0 0.000 0.000 0.000  0.00  0.00  0.00     0     0 192.9  0.00  0.00   0.0  0.00  0.00  0.00  0.00  0.00  0.00  0.00  0.00  0.00  0.00  0.00      0      0      0
 1981 178     1     1   0.0     0  0.00     0     0     0     0     0     0    0.0 0.000     0     0 0.000 0.000 0.000  0.00  0.00  0.00     0     0 192.9  0.00  0.00   0.0  0.00  0.00  0.00  0.00  0.00  0.00  0.00  0.00  0.00  0.00  0.00      0      0      0
 1981 179     2     2   0.0     0  0.00     0     0     0     0     0     0    0.0 0.000     0     0 0.000 0.000 0.000  0.00  0.00  0.00     0     0 192.9  0.00  0.00   0.0  0.00  0.00  0.00  0.00  0.00  0.00  0.00  0.00  0.00  0.00  0.00      0      0      0
 1981 180     3     3   0.0     0  0.00     0     0     0     0     0     0    0.0 0.000     0     0 0.000 0.000 0.000  0.00  0.00  0.00     0     0 192.9  0.00  0.00   0.0  0.00  0.00  0.00  0.00  0.00  0.00  0.00  0.00  0.00  0.00  0.00      0      0      0
 1981 181     4     4   0.0     0  0.00     0     0     0     0     0     0    0.0 0.000     0     0 0.000 0.000 0.000  0.00  0.00  0.00     0     0 192.9  0.00  0.00   0.0  0.00  0.00  0.00  0.00  0.00  0.00  0.00  0.00  0.00  0.00  0.00      0      0      0
 1981 182     5     5   0.0     0  0.02    13     3     0    16    16     0    0.0 0.000     0     0 0.000 0.000 0.000  5.70  0.00  0.00     0     0 193.0  0.03  0.03   0.0  0.27  0.05  0.05  0.03  0.00  0.00  0.00  0.00  0.00  0.00  0.00      0      0      0
 1981 183     6     6   0.1     0  0.03    13     3     0    19    16     0    0.0 0.000     0     0 0.000 0.000 0.896  5.67  0.00  0.00     0     0 196.8  0.03  0.03   0.0  0.29  0.05  0.06  0.04  0.00  0.00  0.00  0.00  0.00  0.00  0.00      0      0      0
 1981 184     7     7   0.3     0  0.03    14     3     0    23    17     0    0.0 0.000     0     0 0.000 0.000 0.787  5.65  0.00  0.00     0     0 203.2  0.03  0.04   0.0  0.31  0.04  0.08  0.05  0.00  0.00  0.00  0.00  0.00  0.00  0.00      0      0      0
 1981 185     8     8   0.4     0  0.03    14     3     0    27    17     0    0.0 0.000     0     0 0.000 0.000 0.903  5.63  0.00  0.00     0     0 206.1  0.04  0.04   0.0  0.34  0.04  0.10  0.06  0.00  0.00  0.00  0.00  0.00  0.00  0.00      0      0      0
 1981 186     9     9   0.6     0  0.03    15     3     0    30    18     0    0.0 0.000     0     0 0.000 0.000 0.484  5.63  0.00  0.00     0     0 218.3  0.04  0.05   0.0  0.36  0.04  0.11  0.06  0.00  0.00  0.00  0.00  0.00  0.00  0.00      0      0      0
 1981 187    10    10   0.7     0  0.04    16     3     0    34    19     0    0.0 0.000     0     0 0.000 0.000 0.637  5.63  0.00  0.00     0     0 226.3  0.05  0.05   0.0  0.38  0.04  0.12  0.07  0.01  0.00  0.00  0.00  0.00  0.00  0.00      0      0      0
 1981 188    11    11   0.9     0  0.04    17     4     0    38    21     0    0.0 0.000     0     0 0.000 0.000 0.448  5.63  0.00  0.00     0     0 237.1  0.06  0.06   0.0  0.40  0.04  0.14  0.08  0.01  0.00  0.00  0.00  0.00  0.00  0.00      0      0      0
 1981 189    12    12   1.2     0  0.05    20     4     0    39    25     0    0.0 0.000     0     0 0.000 0.000 0.140  5.55  0.00  0.00     0     0 263.0  0.06  0.07   0.0  0.43  0.05  0.14  0.08  0.01  0.00  0.00  0.00  0.00  0.00  0.00      0      0      0
 1981 190    13    13   1.5     0  0.07    25     5     0    40    30     0    0.0 0.000     0     0 0.000 0.000 0.000  5.38  0.00  0.00     0     0 281.7  0.08  0.08   0.0  0.45  0.05  0.14  0.08  0.01  0.00  0.00  0.00  0.00  0.00  0.00      0      0      0
 1981 191    14    14   1.8     0  0.09    32     5     0    41    37     0    0.0 0.000     0     0 0.000 0.000 0.000  5.29  0.00  0.00     0     0 293.5  0.09  0.10   0.0  0.47  0.05  0.15  0.08  0.01  0.00  0.00  0.00  0.00  0.00  0.00      0      0      0
 1981 192    15    15   2.1     0  0.12    40     6     0    43    46     0    0.0 0.000     0     0 0.000 0.000 0.000  5.25  0.00  0.00     0     0 302.5  0.11  0.11   0.0  0.49  0.05  0.15  0.08  0.02  0.00  0.00  0.00  0.00  0.00  0.00      0      0      0
 1981 193    16    16   2.4     0  0.15    49     7     0    45    56     0    0.0 0.000     0     0 0.000 0.000 0.000  5.24  0.00  0.00     0     0 312.0  0.12  0.13   0.0  0.52  0.05  0.16  0.09  0.02  0.00  0.00  0.00  0.00  0.00  0.00      1      0      0
 1981 194    17    17   2.6     0  0.19    58     9     0    49    67     0    0.0 0.000     0     0 0.000 0.000 0.000  5.25  0.00  0.00     0     0 322.5  0.14  0.14   0.0  0.54  0.06  0.17  0.09  0.02  0.00  0.00  0.00  0.00  0.00  0.00      1      0      0
 1981 195    18    18   2.9     0  0.22    68    12     0    54    81     0    0.0 0.000     0     0 0.000 0.000 0.000  5.27  0.00  0.00     0     0 325.8  0.15  0.16   0.0  0.56  0.07  0.18  0.10  0.02  0.01  0.00  0.00  0.00  0.00  0.00      1      1      0
 1981 196    19    19   3.2     0  0.27    83    14     0    58    97     0    0.0 0.000     0     0 0.000 0.035 0.000  5.34  0.00  0.00     0     0 326.2  0.17  0.18   0.0  0.59  0.07  0.19  0.10  0.03  0.01  0.00  0.00  0.00  0.00  0.00      1      1      0
 1981 197    20    20   3.6     0  0.33    96    18     0    62   114     0    0.0 0.000     0     0 0.000 0.000 0.000  5.34  0.00  0.00     0     0 343.6  0.18  0.20   0.0  0.61  0.07  0.20  0.11  0.03  0.02  0.00  0.00  0.00  0.00  0.00      2      1      1
 1981 198    21    21   3.9     0  0.39   107    22     0    68   130     0    0.0 0.000     0     0 0.000 0.000 0.000  5.34  0.00  0.00     0     0 362.3  0.20  0.21   0.0  0.64  0.09  0.22  0.11  0.04  0.02  0.00  0.00  0.00  0.00  0.00      2      1      1
 1981 199    22    22   4.2     0  0.46   121    28     0    75   149     0    0.0 0.000     0     0 0.000 0.000 0.000  5.36  0.00  0.00     0     0 376.0  0.22  0.23   0.0  0.66  0.10  0.23  0.12  0.04  0.03  0.00  0.00  0.00  0.00  0.00      2      2      1
 1981 200    23    23   4.4     0  0.53   140    36     0    84   176     0    0.0 0.000     0     0 0.000 0.000 0.000  5.39  0.00  0.00     0     0 378.5  0.23  0.25   0.0  0.68  0.10  0.25  0.13  0.05  0.03  0.00  0.00  0.00  0.00  0.00      3      2      1
 1981 201    24    24   4.7     0  0.60   156    47     0    95   203     0    0.0 0.000     0     0 0.000 0.000 0.000  5.39  0.00  0.00     0     0 385.8  0.25  0.27   0.0  0.70  0.10  0.28  0.14  0.06  0.04  0.01  0.00  0.00  0.00  0.00      4      2      1
 1981 202    25    25   5.0     0  0.68   174    60     0   107   235     0    0.0 0.000     0     0 0.000 0.000 0.000  5.40  0.00  0.00     0     0 388.1  0.26  0.28   0.0  0.73  0.10  0.31  0.16  0.07  0.05  0.01  0.00  0.00  0.00  0.00      4      3      2
 1981 203    26    26   5.3     0  0.76   192    74     0   119   267     0    0.0 0.000     0     0 0.000 0.000 0.000  5.40  0.00  0.00     0     0 395.7  0.28  0.30   0.0  0.75  0.10  0.33  0.17  0.07  0.06  0.02  0.00  0.00  0.00  0.00      5      3      2
 1981 204    27    27   5.5     0  0.78   206    84     0   148   290     0    0.0 0.000     0     0 0.089 0.393 0.000  5.49  0.00  0.00     0     0 379.9  0.29  0.31   0.0  0.77  0.14  0.39  0.20  0.09  0.08  0.03  0.00  0.00  0.00  0.00      6      4      2
 1981 205    28    28   5.7     0  0.80   220    94     0   178   315     0    0.0 0.000     0     0 0.061 0.374 0.000  5.55  0.00  0.00     0     0 365.3  0.30  0.32   0.0  0.80  0.13  0.45  0.23  0.11  0.10  0.05  0.00  0.00  0.00  0.00      7      4      3
 1981 206    29    29   5.8     0  0.81   229   101     0   207   330     0    0.0 0.000     0     0 0.259 0.506 0.000  5.57  0.00  0.00     0     0 353.4  0.30  0.33   0.0  0.82  0.13  0.51  0.26  0.13  0.11  0.07  0.00  0.00  0.00  0.00      8      5      3
 1981 207    30    30   6.0     0  0.82   241   110     0   236   351     0    0.0 0.000     0     0 0.166 0.444 0.000  5.59  0.00  0.00     0     0 341.2  0.31  0.33   0.0  0.84  0.12  0.57  0.29  0.15  0.13  0.09  0.00  0.00  0.00  0.00      9      6      3
 1981 208    31    31   6.1     0  0.83   251   117     0   266   368     0    0.0 0.000     0     0 0.199 0.466 0.000  5.61  0.00  0.00     0     0 329.8  0.31  0.34   0.0  0.87  0.12  0.63  0.32  0.16  0.15  0.11  0.00  0.00  0.00  0.00     12      8      4
 1981 209    32    32   6.3     0  0.82   255   121     0   291   376     0    0.0 0.000     0     0 0.398 0.599 0.000  5.61  0.00  0.00     0     0 322.0  0.32  0.34   0.0  0.90  0.12  0.68  0.34  0.18  0.16  0.13  0.00  0.00  0.00  0.00     15      9      5
 1981 210    33    33   6.4     0  0.81   258   124     0   315   382     0    0.0 0.000     0     0 0.332 0.554 0.000  5.61  0.00  0.00     0     0 314.0  0.32  0.34   0.0  0.92  0.11  0.73  0.37  0.19  0.18  0.15  0.00  0.00  0.00  0.00     22     14      8
 1981 211    34    34   6.6     0  0.85   271   133     0   333   404     0    0.0 0.000     0     0 0.000 0.230 0.000  5.62  0.00  0.00     0     0 315.6  0.33  0.35   0.0  0.94  0.15  0.75  0.38  0.20  0.19  0.16  0.00  0.00  0.00  0.00     28     18     10
 1981 212    35    35   6.9     0  0.96   296   154     0   347   449     0    0.0 0.000     0     0 0.000 0.000 0.000  5.59  0.00  0.00     0     0 323.0  0.34  0.36   0.0  0.96  0.18  0.77  0.39  0.21  0.19  0.18  0.00  0.00  0.00  0.00     34     22     13
 1981 213    36    36   7.2     0  1.05   317   173     0   361   490     0    0.0 0.000     0     0 0.000 0.000 0.000  5.56  0.00  0.00     0     0 331.6  0.36  0.38   0.0  0.99  0.22  0.80  0.40  0.21  0.20  0.19  0.00  0.00  0.00  0.00     47     30     17
 1981 214    37    37   7.5     0  1.15   345   199     0   380   544     0    0.0 0.000     0     0 0.000 0.000 0.000  5.53  0.00  0.00     0     0 335.0  0.37  0.40   0.0  1.01  0.21  0.83  0.42  0.22  0.21  0.20  0.01  0.00  0.00  0.00     59     37     21
 1981 215    38    38   7.8     0  1.28   379   231     0   398   611     0    0.0 0.000     0     0 0.000 0.000 0.000  5.51  0.00  0.00     0     0 336.5  0.39  0.42   0.0  1.03  0.25  0.86  0.43  0.23  0.22  0.21  0.01  0.00  0.00  0.00     60     38     22
 1981 216    39    39   8.1     0  1.41   415   266     0   417   680     0    0.0 0.000     0     0 0.000 0.000 0.000  5.48  0.00  0.00     0     0 339.5  0.41  0.44   0.0  1.06  0.29  0.89  0.45  0.24  0.23  0.23  0.01  0.00  0.00  0.00     62     39     23
 1981 217    40    40   8.4     0  1.55   456   308     0   439   764     0    0.0 0.000     0     0 0.000 0.000 0.000  5.46  0.00  0.00     0     0 339.4  0.42  0.46   0.0  1.08  0.33  0.92  0.46  0.25  0.24  0.24  0.01  0.00  0.00  0.00     65     41     24
 1981 218    41    41   8.7     0  1.69   493   349     0   458   842     0    0.0 0.000     0     0 0.000 0.000 0.000  5.44  0.00  0.00     0     0 342.2  0.44  0.47   0.0  1.10  0.37  0.95  0.48  0.26  0.25  0.25  0.02  0.00  0.00  0.00     67     42     25
 1981 219    42    42   9.0     0  1.84   537   400     0   480   937     0    0.0 0.000     0     0 0.000 0.000 0.000  5.43  0.00  0.00     0     0 342.6  0.46  0.49   0.0  1.12  0.42  0.99  0.49  0.27  0.26  0.27  0.02  0.00  0.00  0.00     70     44     26
 1981 220    43    43   9.3     0  1.99   578   450     0   499  1029     0    0.0 0.000     0     0 0.000 0.000 0.000  5.41  0.00  0.00     0     0 344.2  0.48  0.51   0.0  1.15  0.40  1.02  0.51  0.28  0.27  0.28  0.03  0.00  0.00  0.00     73     46     27
 1981 221    44    44   9.6     0  2.15   621   505     0   519  1126     0    0.0 0.000     0     0 0.000 0.000 0.000  5.39  0.00  0.00     0     0 346.3  0.49  0.53   0.0  1.17  0.44  1.05  0.53  0.29  0.28  0.30  0.03  0.00  0.00  0.00     76     48     28
 1981 222    45    45   9.8     0  2.32   671   573     0   542  1244     0    0.0 0.000     0     0 0.000 0.000 0.000  5.39  0.00  0.00     0     0 345.1  0.51  0.55   0.0  1.19  0.44  1.09  0.55  0.30  0.29  0.31  0.04  0.00  0.00  0.00     79     50     29
 1981 223    46    46  10.1     0  2.47   711   631     0   559  1343     0    0.0 0.000     0     0 0.000 0.000 0.000  5.36  0.00  0.00     0     0 347.2  0.53  0.56   0.0  1.22  0.48  1.11  0.56  0.31  0.30  0.33  0.05  0.00  0.00  0.00     83     52     30
 1981 224    47    47  10.4     0  2.65   762   708     0   581  1471     0    0.0 0.000     0     0 0.000 0.000 0.000  5.36  0.00  0.00     0     0 348.0  0.54  0.58   0.0  1.24  0.52  1.14  0.57  0.32  0.31  0.34  0.05  0.00  0.00  0.00     87     55     32
 1981 225    48    48  10.7     1  2.83   805   774     0   598  1579     0    0.0 0.000     0     0 0.000 0.000 0.000  5.33  0.00  0.00     0     0 351.3  0.56  0.60   0.0  1.26  0.53  1.17  0.59  0.33  0.32  0.35  0.06  0.00  0.00  0.00     91     58     34
 1981 226    49    49  11.0     1  2.95   847   838     0   635  1685     0    0.0 0.000     0     0 0.000 0.143 0.000  5.36  0.00  0.00     0     0 348.8  0.57  0.61   0.0  1.29  0.53  1.23  0.62  0.35  0.34  0.38  0.07  0.00  0.00  0.00     95     60     35
 1981 227    50    50  11.1     1  2.97   866   869     0   696  1735     0    0.0 0.000     0     0 0.199 0.466 0.000  5.38  0.00  0.00     0     0 342.7  0.58  0.62   0.0  1.31  0.51  1.34  0.67  0.38  0.37  0.42  0.08  0.01  0.00  0.00     99     62     36
 1981 228    51    51  11.2     1  2.96   874   883     0   748  1757     0    0.0 0.000     0     0 0.443 0.628 0.000  5.39  0.00  0.00     0     0 338.9  0.58  0.63   0.0  1.33  0.49  1.42  0.71  0.40  0.39  0.45  0.10  0.01  0.00  0.00    102     65     38
 1981 229    52    52  11.3     1  2.96   881   896     0   797  1777     0    0.0 0.000     0     0 0.453 0.635 0.000  5.40  0.00  0.00     0     0 335.3  0.59  0.63   0.0  1.36  0.48  1.49  0.75  0.43  0.42  0.48  0.11  0.01  0.00  0.00    106     67     39
 1981 230    53    53  11.5     1  2.96   895   917     0   851  1812     0    0.0 0.000     0     0 0.328 0.552 0.000  5.42  0.00  0.00     0     0 330.3  0.59  0.63   0.0  1.38  0.56  1.55  0.79  0.45  0.44  0.52  0.12  0.02  0.00  0.00    111     70     41
 1981 231    54    54  11.6     1  2.91   892   925     0   894  1817     0    0.0 0.000     0     0 0.407 0.604 0.000  5.42  0.00  0.00     0     0 326.6  0.59  0.63   0.0  1.41  0.54  1.60  0.83  0.47  0.46  0.55  0.13  0.02  0.00  0.00    132     84     48
 1981 232    55    55  11.8     1  2.91   891   947     0   911  1837     0    0.0 0.000     0     0 0.000 0.192 0.000  5.42  0.00  0.00     0     0 327.0  0.60  0.64   0.0  1.43  0.58  1.62  0.84  0.48  0.47  0.56  0.14  0.02  0.00  0.00    174    110     64
 1981 233    56    56  12.1     1  2.97   894   978     0   913  1873     0    0.0 0.000     0     0 0.000 0.000 0.000  5.39  0.00  0.00     0     0 332.3  0.62  0.65   0.0  1.46  0.60  1.62  0.84  0.48  0.47  0.56  0.14  0.02  0.00  0.00    217    137     80
 1981 234    57    57  12.4     1  3.06   916  1031     0   922  1946     0    0.0 0.000     0     0 0.000 0.000 0.000  5.38  0.00  0.00     0     0 333.9  0.63  0.67   0.0  1.48  0.63  1.63  0.85  0.48  0.48  0.56  0.14  0.03  0.00  0.00    249    158     92
 1981 235    58    58  12.7     1  3.11   934  1085     0   930  2019     0    0.0 0.000     0     0 0.000 0.000 0.000  5.37  0.00  0.00     0     0 333.2  0.65  0.69   0.0  1.50  0.66  1.65  0.85  0.49  0.48  0.57  0.14  0.03  0.00  0.00    289    183    106
 1981 236    59    59  13.0     1  3.23   974  1153     0   939  2126     0    0.0 0.000     0     0 0.000 0.000 0.000  5.35  0.00  0.00     0     0 331.7  0.67  0.70   0.0  1.52  0.69  1.66  0.86  0.49  0.48  0.57  0.15  0.03  0.00  0.00    294    186    108
 1981 237    60    60  13.3     1  3.34  1025  1240     0   956  2265     0    0.0 0.000     0     0 0.000 0.000 0.000  5.34  0.00  0.00     0     0 325.5  0.68  0.72   0.0  1.54  0.73  1.68  0.87  0.50  0.49  0.58  0.15  0.03  0.00  0.00    299    189    110
 1981 238    61    61  13.5     1  3.44  1073  1326     0   971  2399     0    0.0 0.000     0     0 0.000 0.000 0.000  5.33  0.00  0.00     0     0 320.9  0.69  0.73   0.0  1.57  0.71  1.71  0.88  0.51  0.50  0.60  0.16  0.03  0.00  0.00    304    193    112
 1981 239    62    62  13.8     1  3.54  1118  1411     0   984  2529     0    0.0 0.000     0     0 0.000 0.000 0.000  5.32  0.00  0.00     0     0 316.9  0.71  0.75   0.0  1.59  0.74  1.73  0.89  0.51  0.50  0.60  0.16  0.04  0.00  0.00    310    196    114
 1981 240    63    63  14.1     1  3.53  1108  1418     0   974  2526     0    0.0 0.000     0     0 0.000 0.000 0.000  5.33  0.00  0.00     0     0 318.9  0.75  0.76   0.0  1.61  0.74  1.71  0.88  0.50  0.50  0.60  0.16  0.04  0.00  0.00    342    216    125
 1981 241    64    64  14.4     1  3.63  1148  1489     0   981  2637     0    0.0 0.000     0     0 0.000 0.000 0.000  5.41  0.00  0.00     0     0 315.8  0.77  0.76   0.0  1.63  0.76  1.71  0.88  0.51  0.50  0.60  0.16  0.04  0.00  0.00    348    220    128
 1981 242    65    65  14.7     3  3.70  1186  1568     0   992  2754     0    0.0 0.000     0     0 0.000 0.000 0.000  5.38  0.00  0.00     0     0 312.0  0.79  0.76   0.0  1.66  0.80  1.73  0.89  0.51  0.50  0.61  0.16  0.04  0.00  0.00    355    224    130
 1981 243    66    66  14.7     3  3.76  1224  1649     0  1002  2878     0    0.0 0.000     5    53 0.000 0.000 0.000  5.36  0.00  0.00     0     5 307.5  0.80  0.76   0.0  1.68  0.83  1.74  0.89  0.51  0.51  0.61  0.17  0.04  0.00  0.00    362    229    133
 1981 244    67    67  14.7     3  3.81  1263  1734     0  1014  3013     0    0.0 0.000    16   124 0.000 0.000 0.000  5.35  0.00  0.01     0    16 302.0  0.82  0.76   0.0  1.70  0.86  1.76  0.90  0.52  0.51  0.62  0.17  0.05  0.00  0.00    369    233    135
 1981 245    68    68  14.7     3  3.85  1303  1823     0  1026  3157     0    0.0 0.000    32   177 0.000 0.000 0.000  5.33  0.00  0.01     0    32 295.8  0.83  0.76   0.0  1.72  0.89  1.77  0.91  0.52  0.52  0.63  0.17  0.05  0.01  0.00    376    238    138
 1981 246    69    69  14.7     3  3.89  1340  1909     0  1037  3299     0    0.0 0.000    51   217 0.000 0.000 0.000  5.32  0.00  0.02     0    51 290.1  0.83  0.76   0.0  1.74  0.92  1.79  0.92  0.53  0.52  0.63  0.18  0.05  0.01  0.00    383    243    141
 1981 247    70    70  14.7     3  3.91  1373  1990     0  1046  3437     0    0.0 0.000    75   264 0.000 0.000 0.000  5.30  0.00  0.02     0    75 284.8  0.83  0.76   0.0  1.77  0.90  1.80  0.92  0.53  0.53  0.64  0.18  0.05  0.01  0.00    391    248    144
 1981 248    71    71  14.7     3  3.93  1401  2063     0  1052  3566     0    0.0 0.000   103   313 0.000 0.000 0.000  5.28  0.00  0.03     0   103 280.3  0.83  0.76   0.0  1.79  0.87  1.81  0.93  0.54  0.53  0.64  0.18  0.05  0.01  0.00    399    253    147
 1981 249    72    72  14.7     3  3.93  1416  2113     0  1051  3665     0    0.0 0.000   136   364 0.000 0.000 0.000  5.25  0.00  0.04     0   136 277.3  0.83  0.76   0.0  1.80  0.88  1.81  0.92  0.53  0.53  0.64  0.18  0.05  0.01  0.00    408    258    150
 1981 250    73    73  14.7     3  3.93  1441  2183     0  1056  3799     0    0.0 0.000   175   428 0.000 0.000 0.000  5.24  0.00  0.05     0   175 272.7  0.83  0.76   0.0  1.80  0.90  1.81  0.93  0.54  0.53  0.65  0.18  0.06  0.01  0.00    417    264    153
 1981 251    74    74  14.7     3  3.93  1467  2257     0  1061  3944     0    0.0 0.000   220   505 0.000 0.000 0.000  5.22  0.00  0.06     0   220 267.6  0.83  0.76   0.0  1.80  0.92  1.82  0.93  0.54  0.53  0.65  0.19  0.06  0.01  0.00    426    269    156
 1981 252    75    75  14.7     3  3.91  1487  2322     0  1064  4082     0    0.0 0.000   273   584 0.000 0.000 0.000  5.20  0.00  0.07     0   273 263.1  0.83  0.76   0.0  1.80  0.94  1.82  0.93  0.54  0.53  0.65  0.19  0.06  0.01  0.00    435    275    160
 1981 253    76    76  14.7     5  3.89  1496  2365     0  1060  4182    76    0.0 0.000   320   665 0.000 0.000 0.000  5.17  0.00  0.08     0   320 259.9  0.83  0.76   0.0  1.80  0.95  1.81  0.92  0.53  0.53  0.65  0.19  0.06  0.01  0.00    457    281    163
 1981 254    77    77  14.7     5  3.86  1508  2415     5  1058  4299   178    2.6 0.001   375   729 0.000 0.000 0.000  5.15  1.23  0.09     0   375 256.2  0.83  0.76   0.0  1.80  0.96  1.81  0.92  0.53  0.53  0.65  0.19  0.06  0.01  0.00    484    288    167
 1981 255    78    78  14.7     5  3.83  1517  2460    15  1055  4423   254    6.1 0.003   446   792 0.000 0.000 0.000  5.13  3.46  0.10     0   446 252.8  0.83  0.76   0.0  1.80  0.97  1.80  0.92  0.53  0.53  0.64  0.19  0.06  0.01  0.00    507    294    171
 1981 256    79    79  14.7     5  3.80  1523  2498    31  1051  4551   314    9.9 0.007   531   842 0.000 0.000 0.000  5.10  5.87  0.12     0   531 249.8  0.83  0.76   0.0  1.80  0.97  1.79  0.91  0.53  0.52  0.64  0.19  0.06  0.01  0.00    527    301    175
 1981 257    80    80  14.7     5  3.77  1525  2528    51  1045  4664   457   11.1 0.011   612   919 0.000 0.000 0.000  5.08  8.26  0.13     0   612 247.2  0.83  0.76   0.0  1.80  0.97  1.78  0.91  0.53  0.52  0.64  0.19  0.06  0.01  0.00    557    308    179
 1981 258    81    81  14.7     5  3.74  1520  2540    78  1035  4772   533   14.7 0.016   712  1006 0.000 0.000 0.000  5.05 10.99  0.15     0   712 245.7  0.83  0.76   0.0  1.80  0.97  1.76  0.90  0.52  0.51  0.63  0.19  0.06  0.01  0.00    579    315    183
 1981 259    82    82  14.7     5  3.69  1501  2519   111  1015  4810   632   17.5 0.023   791  1082 0.000 0.000 0.000  5.01 14.02  0.16     0   791 246.1  0.83  0.76   0.0  1.80  0.95  1.73  0.88  0.51  0.51  0.62  0.18  0.06  0.01  0.00    602    323    187
 1981 260    83    83  14.7     5  3.65  1479  2495   152   996  4872   750   20.3 0.031   897  1123 0.000 0.000 0.000  4.96 16.96  0.18     0   897 246.6  0.83  0.76   0.0  1.80  0.93  1.70  0.87  0.50  0.50  0.61  0.18  0.06  0.01  0.00    628    331    192
 1981 261    84    84  14.7     5  3.61  1464  2482   202   983  4976   874   23.1 0.041  1030  1182 0.000 0.000 0.000  4.93 19.63  0.21     0  1030 246.6  0.83  0.76   0.0  1.80  0.92  1.68  0.86  0.50  0.49  0.60  0.18  0.06  0.01  0.00    654    339    197
 1981 262    85    85  14.7     5  3.56  1444  2462   255   971  5060  1017   25.1 0.050  1155  1250 0.000 0.000 0.000  4.88 22.10  0.23     0  1155 247.0  0.83  0.76   0.0  1.80  0.91  1.66  0.85  0.49  0.48  0.60  0.17  0.06  0.01  0.00    684    347    201
 1981 263    86    86  14.7     5  3.52  1423  2441   312   959  5149  1017   30.7 0.061  1285  1303 0.000 0.000 0.000  4.82 24.31  0.25     0  1285 247.3  0.83  0.76   0.0  1.80  0.90  1.64  0.84  0.48  0.48  0.59  0.17  0.06  0.01  0.00    697    355    206
 1981 264    87    87  14.7     5  3.47  1401  2419   379   945  5178  1137   33.3 0.073  1358  1330 0.000 0.000 0.000  4.76 27.91  0.26     0  1358 247.7  0.83  0.76   0.0  1.80  0.89  1.62  0.83  0.48  0.47  0.58  0.17  0.05  0.01  0.00    729    364    211
 1981 265    88    88  14.7     5  3.42  1377  2392   453   927  5246  1250   36.2 0.086  1477  1362 0.000 0.000 0.000  4.69 30.66  0.28     0  1477 248.3  0.83  0.76   0.0  1.80  0.87  1.59  0.81  0.47  0.46  0.57  0.17  0.05  0.01  0.00    759    374    217
 1981 266    89    89  14.7     5  3.36  1352  2368   533   911  5317  1486   35.9 0.100  1597  1410 0.000 0.000 0.000  4.62 33.41  0.30     0  1597 248.7  0.83  0.76   0.0  1.80  0.84  1.57  0.80  0.46  0.46  0.56  0.16  0.05  0.01  0.00    801    383    222
 1981 267    90    90  14.7     5  3.31  1328  2342   630   895  5385  1633   38.6 0.117  1715  1473 0.000 0.000 0.000  4.55 36.73  0.32     0  1715 249.3  0.83  0.76   0.0  1.80  0.81  1.54  0.78  0.45  0.45  0.55  0.16  0.05  0.01  0.00    831    393    228
 1981 268    91    91  14.7     5  3.25  1303  2317   738   880  5462  1771   41.7 0.135  1842  1534 0.000 0.000 0.000  4.47 40.09  0.34     0  1842 249.7  0.83  0.76   0.0  1.80  0.79  1.52  0.77  0.45  0.44  0.54  0.16  0.05  0.01  0.00    857    403    234
 1981 269    92    92  14.7     5  3.20  1278  2292   858   864  5514  1858   46.2 0.156  1944  1601 0.000 0.000 0.000  4.39 44.13  0.35     0  1944 250.3  0.83  0.76   0.0  1.80  0.76  1.49  0.76  0.44  0.44  0.53  0.16  0.05  0.01  0.00    879    413    239
 1981 270    93    93  14.7     5  3.14  1252  2267   981   849  5592  1973   49.7 0.175  2073  1590 0.000 0.016 0.000  4.30 47.33  0.37     0  2073 250.8  0.83  0.76   0.0  1.80  0.75  1.47  0.75  0.43  0.43  0.53  0.15  0.05  0.01  0.00    902    423    245
 1981 271    94    94  14.7     5  3.08  1226  2241  1111   834  5659  2041   54.4 0.196  2192  1605 0.000 0.000 0.000  4.20 50.69  0.39     0  2192 251.3  0.83  0.76   0.0  1.80  0.74  1.44  0.74  0.43  0.42  0.52  0.15  0.05  0.01  0.00    930    434    252
 1981 272    95    95  14.7     5  3.02  1200  2216  1243   820  5736  2042   60.9 0.217  2319  1569 0.000 0.000 0.000  4.11 53.62  0.40     0  2319 251.8  0.83  0.76   0.0  1.80  0.73  1.42  0.72  0.42  0.42  0.51  0.15  0.05  0.01  0.00    946    444    257
 1981 273    96    96  14.7     5  2.96  1175  2194  1379   805  5812  2042   67.5 0.237  2444  1575 0.000 0.000 0.000  4.00 56.45  0.42     0  2444 252.3  0.83  0.76   0.0  1.80  0.72  1.40  0.71  0.41  0.41  0.50  0.15  0.05  0.01  0.00    963    454    263
 1981 274    97    97  14.7     5  2.91  1151  2172  1515   792  5892  2042   74.2 0.257  2569  1494 0.000 0.000 0.000  3.90 58.98  0.44     0  2569 252.7  0.83  0.76   0.0  1.80  0.71  1.38  0.70  0.41  0.40  0.49  0.14  0.05  0.01  0.00    978    464    269
 1981 275    98    98  14.7     5  2.85  1128  2152  1646   778  5969  2042   80.6 0.276  2690  1412 0.000 0.000 0.000  3.80 61.20  0.45     0  2690 253.1  0.83  0.76   0.0  1.80  0.69  1.35  0.69  0.40  0.40  0.49  0.14  0.05  0.01  0.00    993    474    275
 1981 276    99    99  14.7     5  2.80  1106  2132  1767   767  6039  2042   86.5 0.293  2801  1335 0.000 0.000 0.000  3.69 63.09  0.46     0  2801 253.4  0.83  0.76   0.0  1.80  0.68  1.34  0.68  0.39  0.39  0.48  0.14  0.05  0.01  0.00   1008    483    280
 1981 277   100   100  14.7     5  2.75  1085  2114  1881   755  6104  2042   92.1 0.308  2906  1258 0.000 0.000 0.000  3.59 64.73  0.48     0  2906 253.9  0.83  0.76   0.0  1.80  0.67  1.32  0.67  0.39  0.38  0.47  0.14  0.04  0.01  0.00   1021    491    285
 1981 278   101   101  14.7     5  2.71  1064  2095  1996   742  6172  2042   97.8 0.323  3012  1255 0.000 0.000 0.000  3.49 66.27  0.49     0  3012 254.3  0.83  0.76   0.0  1.80  0.66  1.30  0.66  0.38  0.38  0.46  0.14  0.04  0.01  0.00   1034    500    290
 1981 279   102   102  14.7     5  2.66  1045  2079  2106   731  6238  2042  103.1 0.338  3114  1190 0.000 0.000 0.000  3.40 67.63  0.50     0  3114 254.7  0.83  0.76   0.0  1.80  0.64  1.28  0.65  0.38  0.37  0.46  0.13  0.04  0.01  0.00   1046    507    294
 1981 280   103   103  14.7     5  2.62  1027  2062  2210   719  6300  2042  108.2 0.351  3210  1128 0.000 0.065 0.000  3.30 68.84  0.51     0  3210 255.1  0.83  0.76   0.0  1.80  0.63  1.26  0.64  0.37  0.37  0.45  0.13  0.04  0.01  0.00   1058    515    298
 1981 281   104   104  14.7     5  2.58  1009  2044  2285   706  6331  2042  111.9 0.361  3278  1075 0.000 0.000 0.000  3.21 69.71  0.52     0  3278 255.6  0.83  0.76   0.0  1.80  0.62  1.24  0.63  0.37  0.36  0.44  0.13  0.04  0.01  0.00   1069    522    303
 1981 282   105   105  14.7     5  2.54   993  2029  2366   694  6374  2042  115.9 0.371  3352  1075 0.000 0.000 0.000  3.12 70.59  0.53     0  3352 256.1  0.83  0.76   0.0  1.80  0.61  1.22  0.62  0.36  0.36  0.44  0.13  0.04  0.01  0.00   1079    528    306
 1981 283   106   106  14.7     5  2.51   977  2014  2451   681  6421  2042  120.0 0.382  3430  1075 0.000 0.000 0.000  3.03 71.45  0.53     0  3430 256.6  0.83  0.76   0.0  1.80  0.60  1.20  0.61  0.35  0.35  0.43  0.13  0.04  0.01  0.00   1089    534    310
 1981 284   107   107  14.7     5  2.48   962  1998  2498   669  6431  2042  122.3 0.388  3471  1075 0.000 0.000 0.000  2.95 71.97  0.54     0  3471 257.2  0.83  0.76   0.0  1.80  0.59  1.18  0.60  0.35  0.34  0.42  0.12  0.04  0.01  0.00   1098    540    313
 1981 285   108   108  14.7     5  2.45   950  1986  2578   660  6481  2042  126.2 0.398  3546  1075 0.000 0.000 0.000  2.88 72.70  0.55     0  3546 257.6  0.83  0.76   0.0  1.80  0.58  1.16  0.59  0.34  0.34  0.42  0.12  0.04  0.01  0.00   1106    545    316
 1981 286   109   109  14.7     5  2.42   938  1975  2651   652  6527  2042  129.8 0.406  3614  1075 0.000 0.000 0.000  2.81 73.35  0.55     0  3614 258.0  0.83  0.76   0.0  1.80  0.57  1.15  0.58  0.34  0.33  0.41  0.12  0.04  0.01  0.00   1113    549    319
 1981 287   110   110  14.7     5  2.40   927  1964  2718   643  6567  2042  133.1 0.414  3677  1075 0.000 0.000 0.000  2.74 73.93  0.56     0  3677 258.5  0.83  0.76   0.0  1.80  0.55  1.13  0.58  0.33  0.33  0.41  0.12  0.04  0.01  0.00   1120    554    321
 1981 288   111   111  14.7     5  2.37   916  1953  2783   635  6607  2042  136.3 0.421  3737  1075 0.000 0.096 0.000  2.68 74.47  0.57     0  3737 258.9  0.83  0.76   0.0  1.80  0.55  1.12  0.57  0.33  0.33  0.40  0.12  0.04  0.01  0.00   1126    558    323
 1981 289   112   112  14.7     5  2.35   907  1943  2833   628  6634  2042  138.7 0.427  3783  1075 0.000 0.000 0.000  2.62 74.88  0.57     0  3783 259.3  0.83  0.76   0.0  1.80  0.54  1.11  0.56  0.33  0.32  0.40  0.12  0.04  0.01  0.00   1132    561    325
 1981 290   113   113  14.7     5  2.33   898  1934  2886   620  6664  2042  141.3 0.433  3833  1075 0.000 0.000 0.000  2.56 75.30  0.58     0  3833 259.7  0.83  0.76   0.0  1.80  0.53  1.09  0.56  0.32  0.32  0.39  0.11  0.04  0.01  0.00   1137    565    327
 1981 291   114   114  14.7     5  2.31   889  1924  2937   610  6693  2042  143.8 0.439  3881  1075 0.000 0.000 0.000  2.51 75.69  0.58     0  3881 260.2  0.83  0.76   0.0  1.80  0.52  1.08  0.55  0.32  0.31  0.39  0.11  0.04  0.01  0.00   1142    568    329
 1981 292   115   115  14.7     5  2.29   880  1915  2979   603  6714  2042  145.9 0.444  3919  1075 0.115 0.410 0.000  2.46 76.01  0.58     0  3919 260.7  0.83  0.76   0.0  1.80  0.51  1.06  0.54  0.31  0.31  0.38  0.11  0.04  0.01  0.00   1147    571    331
 1981 293   116   116  14.7     5  2.28   873  1907  3009   597  6726  2042  147.4 0.447  3947  1075 0.000 0.000 0.000  2.41 76.25  0.59     0  3947 261.1  0.83  0.76   0.0  1.80  0.51  1.05  0.54  0.31  0.31  0.38  0.11  0.04  0.01  0.00   1151    574    333
 1981 294   117   117  14.7     7  2.26   866  1898  3050   589  6749  2042  149.3 0.452  3984  1075 0.000 0.000 0.000  2.37 76.54  0.59     0  3984 261.5  0.83  0.76   0.0  1.80  0.50  1.04  0.53  0.31  0.30  0.37  0.11  0.04  0.01  0.00   1155    576    334
 1981 295   118   118  14.7     7  1.80   688  1791  3087   580  6499  2042  151.2 0.475  4020  1075 0.000 0.000 0.000  2.31 76.81  0.62     0  4020 262.1  0.83  0.76   0.0  1.80  0.49  1.02  0.52  0.30  0.30  0.37  0.11  0.03  0.01  0.00   1429    749    435
 1981 296   119   119  14.7     7  1.44   547  1705  3115   571  6297  2042  152.5 0.495  4045  1075 0.000 0.116 0.000  2.26 77.01  0.64     0  4045 262.7  0.83  0.76   0.0  1.80  0.48  1.01  0.51  0.30  0.29  0.36  0.11  0.03  0.01  0.00   1646    887    514
 1981 297   120   120  14.7     7  1.15   435  1636  3131   563  6130  2042  153.3 0.511  4059  1075 0.000 0.000 0.000  2.22 77.15  0.66     0  4059 263.3  0.83  0.76   0.0  1.80  0.48  0.99  0.51  0.29  0.29  0.36  0.10  0.03  0.01  0.00   1819    996    578
 1981 298   121   121  14.7     7  0.91   346  1581  3141   554  5994  2042  153.8 0.524  4067  1075 0.000 0.000 0.000  2.18 77.24  0.68     0  4067 263.9  0.83  0.76   0.0  1.80  0.47  0.98  0.50  0.29  0.29  0.35  0.10  0.03  0.01  0.00   1956   1083    628
 1981 299   122   122  14.7     7  0.73   276  1537  3144   545  5882  2042  153.9 0.534  4068  1075 0.000 0.000 0.000  2.17 77.27  0.69     0  4068 264.5  0.83  0.76   0.0  1.80  0.46  0.96  0.49  0.28  0.28  0.35  0.10  0.03  0.01  0.00   2066   1152    668
 1981 300   123   123  14.7     7  0.58   220  1502  3145   536  5791  2042  154.0 0.543  4069  1075 0.000 0.000 0.000  2.17 77.29  0.70     0  4069 265.1  0.83  0.76   0.0  1.80  0.45  0.95  0.48  0.28  0.28  0.34  0.10  0.03  0.01  0.00   2153   1208    700
 1981 301   124   124  14.7     7  0.47   176  1474  3146   529  5719  2042  154.1 0.550  4069  1075 0.000 0.000 0.000  2.17 77.31  0.71     0  4069 265.5  0.83  0.76   0.0  1.80  0.44  0.93  0.48  0.28  0.27  0.33  0.10  0.03  0.01  0.00   2223   1252    726
 1981 302   125   125  14.7     7  0.37   140  1452  3146   522  5661  2042  154.1 0.556  4069  1075 0.000 0.000 0.000  2.17 77.31  0.72     0  4069 266.0  0.83  0.76   0.0  1.80  0.43  0.92  0.47  0.27  0.27  0.33  0.10  0.03  0.01  0.00   2278   1287    746
 1981 303   126   126  14.7     7  0.30   112  1433  3146   513  5614  2042  154.1 0.560  4069  1075 0.000 0.000 0.000  2.18 77.32  0.72     0  4069 266.5  0.83  0.76   0.0  1.80  0.42  0.91  0.46  0.27  0.26  0.32  0.10  0.03  0.01  0.00   2323   1315    763
 1981 304   127   127  14.7     7  0.24    90  1418  3146   507  5577  2042  154.1 0.564  4069  1075 0.000 0.000 0.000  2.18 77.32  0.73     0  4069 266.9  0.83  0.76   0.0  1.80  0.40  0.90  0.46  0.26  0.26  0.32  0.09  0.03  0.01  0.00   2358   1337    776
 1981 305   128   128  14.7     7  0.19    72  1406  3146   501  5546  2042  154.1 0.567  4068  1075 0.000 0.000 0.000  2.18 77.33  0.73     0  4068 267.3  0.83  0.76   0.0  1.80  0.40  0.88  0.45  0.26  0.26  0.32  0.09  0.03  0.01  0.00   2386   1355    786
 1981 306   129   129  14.7     8  0.15    57  1397  3146   494  5522  2042  154.1 0.570  4068  1075 0.000 0.000 0.000  2.19 77.33  0.74     0  4068 267.6  0.83  0.76   0.0  1.80  0.39  0.87  0.44  0.26  0.25  0.31  0.09  0.03  0.01  0.00   2409   1370    794

*RUN   3        :  IRRIGATED, WITH REPRODUC
 MODEL          : CRGRO020 - SOYBEAN   
 EXPERIMENT     : UFGA8101 SB     UFGA8101SB COBB, VEG. & REPROD. STRESS 3I     
 TREATMENT  3   :  IRRIGATED, WITH REPRODUC

@YEAR DOY   DAS   DAP  L#SD  GSTD  LAID  LWAD  SWAD  GWAD  RWAD  CWAD  G#AD   GWGD  HIAD  PWAD  P#AD  WSPD  WSGD  NSTD  LN%D  SH%D  HIPD  PWDD  PWTD  SLAD  CHTD  CWID  NWAD  RDPD  RL1D  RL2D  RL3D  RL4D  RL5D  RL6D  RL7D  RL8D  RL9D  RL10   CDAD   LDAD   SDAD
 1981 177     0     0   0.0     0  0.00     0     0     0     0     0     0    0.0 0.000     0     0 0.000 0.000 0.000  0.00  0.00  0.00     0     0 192.9  0.00  0.00   0.0  0.00  0.00  0.00  0.00  0.00  0.00  0.00  0.00  0.00  0.00  0.00      0      0      0
 1981 178     1     1   0.0     0  0.00     0     0     0     0     0     0    0.0 0.000     0     0 0.000 0.000 0.000  0.00  0.00  0.00     0     0 192.9  0.00  0.00   0.0  0.00  0.00  0.00  0.00  0.00  0.00  0.00  0.00  0.00  0.00  0.00      0      0      0
 1981 179     2     2   0.0     0  0.00     0     0     0     0     0     0    0.0 0.000     0     0 0.000 0.000 0.000  0.00  0.00  0.00     0     0 192.9  0.00  0.00   0.0  0.00  0.00  0.00  0.00  0.00  0.00  0.00  0.00  0.00  0.00  0.00      0      0      0
 1981 180     3     3   0.0     0  0.00     0     0     0     0     0     0    0.0 0.000     0     0 0.000 0.000 0.000  0.00  0.00  0.00     0     0 192.9  0.00  0.00   0.0  0.00  0.00  0.00  0.00  0.00  0.00  0.00  0.00  0.00  0.00  0.00      0      0      0
 1981 181     4     4   0.0     0  0.00     0     0     0     0     0     0    0.0 0.000     0     0 0.000 0.000 0.000  0.00  0.00  0.00     0     0 192.9  0.00  0.00   0.0  0.00  0.00  0.00  0.00  0.00  0.00  0.00  0.00  0.00  0.00  0.00      0      0      0
 1981 182     5     5   0.0     0  0.02    13     3     0    16    16     0    0.0 0.000     0     0 0.000 0.000 0.000  5.70  0.00  0.00     0     0 193.0  0.03  0.03   0.0  0.27  0.05  0.05  0.03  0.00  0.00  0.00  0.00  0.00  0.00  0.00      0      0      0
 1981 183     6     6   0.1     0  0.03    13     3     0    19    16     0    0.0 0.000     0     0 0.000 0.000 0.896  5.67  0.00  0.00     0     0 196.8  0.03  0.03   0.0  0.29  0.05  0.06  0.04  0.00  0.00  0.00  0.00  0.00  0.00  0.00      0      0      0
 1981 184     7     7   0.3     0  0.03    14     3     0    23    17     0    0.0 0.000     0     0 0.000 0.000 0.787  5.65  0.00  0.00     0     0 203.2  0.03  0.04   0.0  0.31  0.04  0.08  0.05  0.00  0.00  0.00  0.00  0.00  0.00  0.00      0      0      0
 1981 185     8     8   0.4     0  0.03    14     3     0    27    17     0    0.0 0.000     0     0 0.000 0.000 0.903  5.63  0.00  0.00     0     0 206.1  0.04  0.04   0.0  0.34  0.04  0.10  0.06  0.00  0.00  0.00  0.00  0.00  0.00  0.00      0      0      0
 1981 186     9     9   0.6     0  0.03    15     3     0    30    18     0    0.0 0.000     0     0 0.000 0.000 0.484  5.63  0.00  0.00     0     0 218.3  0.04  0.05   0.0  0.36  0.04  0.11  0.06  0.00  0.00  0.00  0.00  0.00  0.00  0.00      0      0      0
 1981 187    10    10   0.7     0  0.04    16     3     0    34    19     0    0.0 0.000     0     0 0.000 0.000 0.637  5.63  0.00  0.00     0     0 226.3  0.05  0.05   0.0  0.38  0.04  0.12  0.07  0.01  0.00  0.00  0.00  0.00  0.00  0.00      0      0      0
 1981 188    11    11   0.9     0  0.04    17     4     0    38    21     0    0.0 0.000     0     0 0.000 0.000 0.448  5.63  0.00  0.00     0     0 237.1  0.06  0.06   0.0  0.40  0.04  0.14  0.08  0.01  0.00  0.00  0.00  0.00  0.00  0.00      0      0      0
 1981 189    12    12   1.2     0  0.05    20     4     0    39    25     0    0.0 0.000     0     0 0.000 0.000 0.140  5.55  0.00  0.00     0     0 263.0  0.06  0.07   0.0  0.43  0.05  0.14  0.08  0.01  0.00  0.00  0.00  0.00  0.00  0.00      0      0      0
 1981 190    13    13   1.5     0  0.07    25     5     0    40    30     0    0.0 0.000     0     0 0.000 0.000 0.000  5.38  0.00  0.00     0     0 281.7  0.08  0.08   0.0  0.45  0.05  0.14  0.08  0.01  0.00  0.00  0.00  0.00  0.00  0.00      0      0      0
 1981 191    14    14   1.8     0  0.09    32     5     0    41    37     0    0.0 0.000     0     0 0.000 0.000 0.000  5.29  0.00  0.00     0     0 293.5  0.09  0.10   0.0  0.47  0.05  0.15  0.08  0.01  0.00  0.00  0.00  0.00  0.00  0.00      0      0      0
 1981 192    15    15   2.1     0  0.12    40     6     0    43    46     0    0.0 0.000     0     0 0.000 0.000 0.000  5.25  0.00  0.00     0     0 302.5  0.11  0.11   0.0  0.49  0.05  0.15  0.08  0.02  0.00  0.00  0.00  0.00  0.00  0.00      0      0      0
 1981 193    16    16   2.4     0  0.15    49     7     0    45    56     0    0.0 0.000     0     0 0.000 0.000 0.000  5.24  0.00  0.00     0     0 312.0  0.12  0.13   0.0  0.52  0.05  0.16  0.09  0.02  0.00  0.00  0.00  0.00  0.00  0.00      1      0      0
 1981 194    17    17   2.6     0  0.19    58     9     0    49    67     0    0.0 0.000     0     0 0.000 0.000 0.000  5.25  0.00  0.00     0     0 322.5  0.14  0.14   0.0  0.54  0.06  0.17  0.09  0.02  0.00  0.00  0.00  0.00  0.00  0.00      1      0      0
 1981 195    18    18   2.9     0  0.22    68    12     0    54    81     0    0.0 0.000     0     0 0.000 0.000 0.000  5.27  0.00  0.00     0     0 325.8  0.15  0.16   0.0  0.56  0.07  0.18  0.10  0.02  0.01  0.00  0.00  0.00  0.00  0.00      1      1      0
 1981 196    19    19   3.2     0  0.27    83    14     0    58    97     0    0.0 0.000     0     0 0.000 0.035 0.000  5.34  0.00  0.00     0     0 326.2  0.17  0.18   0.0  0.59  0.07  0.19  0.10  0.03  0.01  0.00  0.00  0.00  0.00  0.00      1      1      0
 1981 197    20    20   3.6     0  0.33    96    18     0    62   114     0    0.0 0.000     0     0 0.000 0.000 0.000  5.34  0.00  0.00     0     0 343.6  0.18  0.20   0.0  0.61  0.07  0.20  0.11  0.03  0.02  0.00  0.00  0.00  0.00  0.00      2      1      1
 1981 198    21    21   3.9     0  0.39   107    22     0    68   130     0    0.0 0.000     0     0 0.000 0.000 0.000  5.34  0.00  0.00     0     0 362.3  0.20  0.21   0.0  0.64  0.09  0.22  0.11  0.04  0.02  0.00  0.00  0.00  0.00  0.00      2      1      1
 1981 199    22    22   4.2     0  0.46   121    28     0    75   149     0    0.0 0.000     0     0 0.000 0.000 0.000  5.36  0.00  0.00     0     0 376.0  0.22  0.23   0.0  0.66  0.10  0.23  0.12  0.04  0.03  0.00  0.00  0.00  0.00  0.00      2      2      1
 1981 200    23    23   4.4     0  0.53   140    36     0    84   176     0    0.0 0.000     0     0 0.000 0.000 0.000  5.39  0.00  0.00     0     0 378.5  0.23  0.25   0.0  0.68  0.10  0.25  0.13  0.05  0.03  0.00  0.00  0.00  0.00  0.00      3      2      1
 1981 201    24    24   4.7     0  0.60   156    47     0    95   203     0    0.0 0.000     0     0 0.000 0.000 0.000  5.39  0.00  0.00     0     0 385.8  0.25  0.27   0.0  0.70  0.10  0.28  0.14  0.06  0.04  0.01  0.00  0.00  0.00  0.00      4      2      1
 1981 202    25    25   5.0     0  0.68   174    60     0   107   235     0    0.0 0.000     0     0 0.000 0.000 0.000  5.40  0.00  0.00     0     0 388.1  0.26  0.28   0.0  0.73  0.10  0.31  0.16  0.07  0.05  0.01  0.00  0.00  0.00  0.00      4      3      2
 1981 203    26    26   5.3     0  0.76   192    74     0   119   267     0    0.0 0.000     0     0 0.000 0.000 0.000  5.40  0.00  0.00     0     0 395.7  0.28  0.30   0.0  0.75  0.10  0.33  0.17  0.07  0.06  0.02  0.00  0.00  0.00  0.00      5      3      2
 1981 204    27    27   5.5     0  0.78   206    84     0   148   290     0    0.0 0.000     0     0 0.089 0.393 0.000  5.49  0.00  0.00     0     0 379.9  0.29  0.31   0.0  0.77  0.16  0.39  0.20  0.09  0.08  0.03  0.00  0.00  0.00  0.00      6      4      2
 1981 205    28    28   5.8     0  0.87   230   103     0   164   334     0    0.0 0.000     0     0 0.000 0.000 0.000  5.49  0.00  0.00     0     0 377.4  0.30  0.32   0.0  0.80  0.19  0.42  0.21  0.10  0.08  0.04  0.00  0.00  0.00  0.00      7      4      3
 1981 206    29    29   6.0     0  0.92   253   121     0   191   374     0    0.0 0.000     0     0 0.000 0.176 0.000  5.53  0.00  0.00     0     0 364.9  0.32  0.34   0.0  0.82  0.19  0.47  0.24  0.12  0.10  0.06  0.00  0.00  0.00  0.00      8      5      3
 1981 207    30    30   6.3     0  1.01   280   144     0   211   425     0    0.0 0.000     0     0 0.000 0.031 0.000  5.54  0.00  0.00     0     0 360.4  0.33  0.35   0.0  0.84  0.18  0.51  0.26  0.13  0.11  0.07  0.00  0.00  0.00  0.00      9      6      3
 1981 208    31    31   6.5     0  1.05   302   163     0   244   465     0    0.0 0.000     0     0 0.000 0.245 0.000  5.58  0.00  0.00     0     0 348.5  0.34  0.37   0.0  0.87  0.24  0.57  0.29  0.15  0.13  0.09  0.00  0.00  0.00  0.00     13      8      5
 1981 209    32    32   6.8     0  1.16   334   191     0   264   525     0    0.0 0.000     0     0 0.000 0.000 0.000  5.56  0.00  0.00     0     0 346.1  0.36  0.38   0.0  0.89  0.27  0.61  0.31  0.16  0.14  0.11  0.00  0.00  0.00  0.00     14      9      5
 1981 210    33    33   7.1     0  1.28   366   221     0   284   588     0    0.0 0.000     0     0 0.000 0.000 0.000  5.55  0.00  0.00     0     0 348.6  0.37  0.40   0.0  0.91  0.26  0.65  0.33  0.17  0.16  0.13  0.00  0.00  0.00  0.00     16     10      6
 1981 211    34    34   7.4     0  1.41   391   246     0   299   636     0    0.0 0.000     0     0 0.000 0.000 0.000  5.52  0.00  0.00     0     0 360.5  0.39  0.42   0.0  0.93  0.29  0.67  0.34  0.18  0.16  0.14  0.00  0.00  0.00  0.00     18     11      7
 1981 212    35    35   7.7     0  1.54   426   281     0   321   706     0    0.0 0.000     0     0 0.000 0.000 0.000  5.51  0.00  0.00     0     0 363.0  0.41  0.44   0.0  0.96  0.33  0.70  0.36  0.19  0.17  0.15  0.00  0.00  0.00  0.00     20     12      7
 1981 213    36    36   8.0     0  1.69   460   318     0   342   778     0    0.0 0.000     0     0 0.000 0.000 0.000  5.50  0.00  0.00     0     0 367.1  0.42  0.46   0.0  0.98  0.37  0.74  0.37  0.20  0.18  0.17  0.00  0.00  0.00  0.00     22     14      8
 1981 214    37    37   8.3     0  1.84   501   364     0   368   866     0    0.0 0.000     0     0 0.000 0.000 0.000  5.49  0.00  0.00     0     0 366.8  0.44  0.47   0.0  1.00  0.37  0.79  0.40  0.21  0.20  0.19  0.01  0.00  0.00  0.00     24     15      9
 1981 215    38    38   8.6     0  1.99   543   414     0   392   957     0    0.0 0.000     0     0 0.000 0.000 0.000  5.48  0.00  0.00     0     0 365.5  0.46  0.49   0.0  1.03  0.42  0.83  0.42  0.22  0.21  0.21  0.01  0.00  0.00  0.00     27     17     10
 1981 216    39    39   8.9     0  2.14   584   465     0   416  1049     0    0.0 0.000     0     0 0.000 0.000 0.000  5.46  0.00  0.00     0     0 365.8  0.48  0.51   0.0  1.05  0.46  0.86  0.43  0.23  0.22  0.22  0.01  0.00  0.00  0.00     30     19     11
 1981 217    40    40   9.2     0  2.30   632   527     0   443  1160     0    0.0 0.000     0     0 0.000 0.000 0.000  5.46  0.00  0.00     0     0 363.6  0.49  0.53   0.0  1.07  0.51  0.91  0.46  0.25  0.24  0.24  0.02  0.00  0.00  0.00     33     21     12
 1981 218    41    41   9.5     0  2.46   674   585     0   465  1258     0    0.0 0.000     0     0 0.000 0.000 0.000  5.44  0.00  0.00     0     0 364.3  0.51  0.55   0.0  1.09  0.55  0.94  0.47  0.26  0.25  0.25  0.02  0.00  0.00  0.00     36     23     13
 1981 219    42    42   9.8     0  2.63   724   656     0   491  1380     0    0.0 0.000     0     0 0.000 0.000 0.000  5.43  0.00  0.00     0     0 363.0  0.53  0.56   0.0  1.12  0.60  0.98  0.49  0.27  0.26  0.27  0.03  0.00  0.00  0.00     40     25     15
[...]
 1981 229    52    52  12.7     1  4.37  1220  1477     0   717  2697     0    0.0 0.000     0     0 0.000 0.000 0.000  5.34  0.00  0.00     0     0 358.0  0.69  0.74   0.0  1.34  0.95  1.32  0.66  0.37  0.37  0.42  0.09  0.01  0.00  0.00     87     55     32
 1981 230    53    53  13.0     1  4.53  1273  1572     0   740  2845     0    0.0 0.000     0     0 0.000 0.000 0.000  5.33  0.00  0.00     0     0 355.9  0.71  0.75   0.0  1.37  0.99  1.36  0.68  0.38  0.38  0.43  0.09  0.01  0.00  0.00     93     59     34
 1981 231    54    54  13.3     1  4.68  1319  1657     0   760  2976     0    0.0 0.000     0     0 0.000 0.000 0.000  5.32  0.00  0.00     0     0 354.9  0.73  0.76   0.0  1.39  1.02  1.39  0.69  0.39  0.38  0.45  0.10  0.01  0.00  0.00     99     63     36
 1981 232    55    55  13.6     1  4.79  1341  1709     0   768  3050     0    0.0 0.000     0     0 0.000 0.000 0.000  5.31  0.00  0.00     0     0 357.1  0.75  0.76   0.0  1.41  1.04  1.40  0.70  0.40  0.39  0.45  0.10  0.01  0.00  0.00    113     71     41
 1981 233    56    56  13.8     1  4.88  1358  1759     0   776  3117     0    0.0 0.000     0     0 0.000 0.000 0.000  5.31  0.00  0.00     0     0 359.0  0.78  0.76   0.0  1.44  1.05  1.41  0.70  0.40  0.39  0.46  0.10  0.01  0.00  0.00    133     84     49
 1981 234    57    57  14.1     1  5.00  1395  1834     0   791  3230     0    0.0 0.000     0     0 0.000 0.000 0.000  5.31  0.00  0.00     0     0 358.2  0.80  0.76   0.0  1.46  1.08  1.43  0.71  0.41  0.40  0.47  0.11  0.01  0.00  0.00    140     88     51
 1981 235    58    58  14.4     1  5.11  1434  1915     0   806  3349     0    0.0 0.000     0     0 0.000 0.000 0.000  5.30  0.00  0.00     0     0 356.1  0.82  0.76   0.0  1.48  1.11  1.45  0.72  0.41  0.40  0.47  0.11  0.02  0.00  0.00    147     93     54
 1981 236    59    59  14.7     1  5.21  1473  1997     0   822  3469     0    0.0 0.000     0     0 0.000 0.000 0.000  5.28  0.00  0.00     0     0 353.4  0.83  0.76   0.0  1.50  1.14  1.47  0.73  0.42  0.41  0.48  0.12  0.02  0.00  0.00    154     97     57
 1981 237    60    60  15.0     1  5.30  1524  2103     0   846  3627     0    0.0 0.000     0     0 0.000 0.000 0.000  5.28  0.00  0.00     0     0 347.5  0.85  0.76   0.0  1.53  1.18  1.50  0.75  0.43  0.42  0.50  0.12  0.02  0.00  0.00    161    102     59
 1981 238    61    61  15.3     1  5.38  1571  2205     0   868  3776     0    0.0 0.000     0     0 0.000 0.000 0.000  5.27  0.00  0.00     0     0 342.7  0.86  0.76   0.0  1.55  1.21  1.53  0.77  0.44  0.43  0.51  0.13  0.03  0.00  0.00    169    107     62
 1981 239    62    62  15.6     1  5.46  1614  2302     0   887  3917     0    0.0 0.000     0     0 0.000 0.000 0.000  5.25  0.00  0.00     0     0 338.4  0.88  0.76   0.0  1.57  1.25  1.56  0.78  0.45  0.44  0.52  0.13  0.03  0.00  0.00    178    112     65
 1981 240    63    63  15.9     1  5.27  1553  2280     0   878  3833     0    0.0 0.000     0     0 0.000 0.000 0.000  5.38  0.00  0.00     0     0 339.2  0.92  0.76   0.0  1.59  1.24  1.54  0.77  0.44  0.43  0.52  0.13  0.03  0.00  0.00    284    180    104
 1981 241    64    64  16.1     3  5.34  1590  2360     0   891  3951     0    0.0 0.000     0     0 0.000 0.000 0.000  5.42  0.00  0.00     0     0 335.7  0.94  0.76   0.0  1.62  1.25  1.56  0.78  0.45  0.44  0.52  0.14  0.03  0.00  0.00    295    186    108
 1981 242    65    65  16.1     3  5.37  1619  2446     0   906  4065     0    0.0 0.000     0     0 0.000 0.000 0.000  5.41  0.00  0.00     0     0 331.7  0.95  0.76   0.0  1.64  1.28  1.58  0.79  0.45  0.45  0.53  0.14  0.03  0.00  0.00    313    198    115
 1981 243    66    66  16.1     3  5.40  1651  2533     0   921  4190     0    0.0 0.000     6    61 0.000 0.000 0.000  5.40  0.00  0.00     0     6 327.1  0.97  0.76   0.0  1.66  1.31  1.60  0.80  0.46  0.45  0.54  0.14  0.04  0.00  0.00    327    207    120
 1981 244    67    67  16.1     3  5.43  1686  2627     0   936  4332     0    0.0 0.000    18   139 0.000 0.000 0.000  5.38  0.00  0.00     0    18 321.9  0.98  0.76   0.0  1.68  1.33  1.62  0.81  0.46  0.46  0.55  0.15  0.04  0.00  0.00    337    213    124
 1981 245    68    68  16.1     3  5.45  1722  2723     0   953  4483     0    0.0 0.000    38   221 0.000 0.000 0.000  5.36  0.00  0.01     0    38 316.3  0.98  0.76   0.0  1.70  1.36  1.64  0.82  0.47  0.46  0.56  0.15  0.04  0.00  0.00    346    219    127
 1981 246    69    69  16.1     3  5.46  1754  2812     0   966  4631     0    0.0 0.000    65   305 0.000 0.000 0.000  5.35  0.00  0.01     0    65 311.1  0.98  0.76   0.0  1.73  1.38  1.66  0.83  0.48  0.47  0.57  0.16  0.04  0.01  0.00    356    225    131
 1981 247    70    70  16.1     3  5.46  1780  2894     0   977  4774     0    0.0 0.000   100   390 0.000 0.000 0.000  5.32  0.00  0.02     0   100 306.5  0.98  0.76   0.0  1.75  1.40  1.67  0.84  0.48  0.47  0.58  0.16  0.05  0.01  0.00    367    232    135
 1981 248    71    71  16.1     3  5.44  1797  2960     0   983  4900     0    0.0 0.000   143   480 0.000 0.000 0.000  5.31  0.00  0.03     0   143 302.5  0.98  0.76   0.0  1.77  1.40  1.68  0.84  0.48  0.48  0.58  0.16  0.05  0.01  0.00    383    243    141
 1981 249    72    72  16.1     3  5.36  1787  2993     0   982  4973     0    0.0 0.000   193   540 0.000 0.000 0.000  5.31  0.00  0.04     0   193 299.9  0.98  0.76   0.0  1.79  1.40  1.68  0.84  0.48  0.48  0.58  0.16  0.05  0.01  0.00    421    267    155
 1981 250    73    73  16.1     3  5.34  1805  3056     0   986  5109     0    0.0 0.000   248   615 0.000 0.000 0.000  5.30  0.00  0.05     0   248 296.1  0.98  0.76   0.0  1.80  1.41  1.68  0.84  0.48  0.48  0.58  0.16  0.05  0.01  0.00    432    274    159
 1981 251    74    74  16.1     3  5.32  1822  3123     0   992  5257     0    0.0 0.000   311   704 0.000 0.000 0.000  5.28  0.00  0.06     0   311 291.8  0.98  0.76   0.0  1.80  1.42  1.69  0.84  0.49  0.48  0.58  0.16  0.05  0.01  0.00    443    281    163
 1981 252    75    75  16.1     5  5.28  1834  3180     0   994  5397     0    0.0 0.000   383   797 0.000 0.000 0.000  5.25  0.00  0.07     0   383 288.1  0.98  0.76   0.0  1.80  1.43  1.69  0.84  0.49  0.48  0.59  0.17  0.05  0.01  0.00    455    288    167
 1981 253    76    76  16.1     5  5.22  1829  3211     0   990  5488    86    0.0 0.000   448   883 0.000 0.000 0.000  5.23  0.00  0.08     0   448 285.5  0.98  0.76   0.0  1.80  1.42  1.68  0.84  0.48  0.48  0.58  0.17  0.05  0.01  0.00    490    301    175
 1981 254    77    77  16.1     5  5.18  1833  3248     5   986  5603   199    2.6 0.001   522   953 0.000 0.000 0.000  5.20  1.00  0.09     0   522 282.7  0.98  0.76   0.0  1.80  1.42  1.67  0.83  0.48  0.48  0.58  0.17  0.05  0.01  0.00    522    309    179
 1981 255    78    78  16.1     5  5.13  1833  3280    17   983  5721   319    5.4 0.003   608  1017 0.000 0.000 0.000  5.18  2.85  0.11     0   608 280.1  0.98  0.76   0.0  1.80  1.42  1.66  0.83  0.48  0.47  0.58  0.17  0.05  0.01  0.00    554    317    184
 1981 256    79    79  16.1     5  5.09  1830  3301    37   977  5839   442    8.4 0.006   708  1064 0.000 0.000 0.000  5.15  5.24  0.12     0   708 278.2  0.98  0.76   0.0  1.80  1.41  1.65  0.82  0.48  0.47  0.58  0.16  0.05  0.01  0.00    586    326    189
 1981 257    80    80  16.1     5  5.04  1822  3312    64   969  5934   703    9.2 0.011   800  1130 0.000 0.000 0.000  5.12  8.04  0.13     0   800 276.8  0.98  0.76   0.0  1.80  1.40  1.64  0.82  0.47  0.47  0.57  0.16  0.05  0.01  0.00    635    334    194
 1981 258    81    81  16.1     5  4.99  1804  3299   107   954  6034   794   13.5 0.018   931  1218 0.000 0.000 0.000  5.09 11.49  0.15     0   931 276.6  0.98  0.76   0.0  1.80  1.38  1.61  0.81  0.47  0.46  0.56  0.16  0.05  0.01  0.00    660    343    199
 1981 259    82    82  16.1     5  4.88  1760  3260   156   936  6032   908   17.1 0.026  1012  1295 0.000 0.000 0.000  5.08 15.37  0.17     0  1012 277.1  0.98  0.76   0.0  1.80  1.36  1.58  0.79  0.46  0.45  0.55  0.16  0.05  0.01  0.00    721    373    216
 1981 260    83    83  16.1     5  4.81  1734  3231   215   918  6087  1046   20.5 0.035  1122  1336 0.000 0.000 0.000  5.03 19.15  0.18     0  1122 277.6  0.98  0.76   0.0  1.80  1.33  1.56  0.78  0.45  0.44  0.54  0.16  0.05  0.01  0.00    753    383    222
 1981 261    84    84  16.1     5  4.75  1708  3203   285   905  6180  1190   23.9 0.046  1269  1397 0.000 0.000 0.000  4.97 22.43  0.21     0  1269 278.0  0.98  0.76   0.0  1.80  1.31  1.54  0.77  0.44  0.44  0.54  0.15  0.05  0.01  0.00    784    394    228
 1981 262    85    85  16.1     5  4.68  1682  3178   357   894  6262  1344   26.6 0.057  1402  1469 0.000 0.000 0.000  4.91 25.46  0.22     0  1402 278.4  0.98  0.76   0.0  1.80  1.30  1.52  0.76  0.44  0.43  0.53  0.15  0.05  0.01  0.00    818    404    234
 1981 263    86    86  16.1     5  4.62  1657  3152   432   883  6350  1344   32.2 0.068  1541  1524 0.000 0.000 0.000  4.85 28.07  0.24     0  1541 278.7  0.98  0.76   0.0  1.80  1.29  1.50  0.75  0.43  0.43  0.52  0.15  0.05  0.01  0.00    835    414    240
 1981 264    87    87  16.1     5  4.52  1620  3119   521   870  6361  1476   35.3 0.082  1623  1553 0.000 0.000 0.000  4.80 32.08  0.26     0  1623 279.2  0.98  0.76   0.0  1.80  1.27  1.48  0.74  0.43  0.42  0.52  0.15  0.05  0.01  0.00    884    435    252
 1981 265    88    88  16.1     5  4.44  1588  3086   616   854  6425  1602   38.5 0.096  1750  1586 0.000 0.000 0.000  4.73 35.21  0.27     0  1750 279.7  0.98  0.76   0.0  1.80  1.25  1.46  0.73  0.42  0.42  0.51  0.15  0.05  0.01  0.00    918    448    260
 1981 266    89    89  16.1     5  4.37  1558  3055   720   839  6494  1855   38.8 0.111  1880  1637 0.000 0.000 0.000  4.65 38.27  0.29     0  1880 280.2  0.98  0.76   0.0  1.80  1.21  1.43  0.72  0.41  0.41  0.50  0.14  0.05  0.01  0.00    962    460    267
 1981 267    90    90  16.1     5  4.29  1527  3024   840   824  6560  2009   41.8 0.128  2009  1704 0.000 0.000 0.000  4.57 41.81  0.31     0  2009 280.8  0.98  0.76   0.0  1.80  1.18  1.41  0.70  0.41  0.40  0.49  0.14  0.05  0.01  0.00    993    472    274
 1981 268    91    91  16.1     5  4.21  1496  2994   974   810  6637  2137   45.6 0.147  2147  1762 0.000 0.000 0.000  4.48 45.34  0.32     0  2147 281.3  0.98  0.76   0.0  1.80  1.14  1.39  0.69  0.40  0.40  0.48  0.14  0.04  0.01  0.00   1023    485    281
 1981 269    92    92  16.1     5  4.13  1465  2964  1104   795  6688  2166   51.0 0.165  2259  1799 0.000 0.000 0.000  4.38 48.85  0.34     0  2259 281.8  0.98  0.76   0.0  1.80  1.10  1.36  0.68  0.39  0.39  0.48  0.14  0.04  0.01  0.00   1049    497    288
 1981 270    93    93  16.1     5  4.05  1433  2933  1247   782  6763  2166   57.6 0.184  2397  1721 0.066 0.377 0.000  4.28 52.04  0.35     0  2397 282.3  0.98  0.76   0.0  1.80  1.07  1.34  0.67  0.39  0.38  0.47  0.13  0.04  0.01  0.00   1070    510    296
 1981 271    94    94  16.1     5  3.95  1397  2899  1363   768  6796  2166   62.9 0.201  2499  1688 0.358 0.572 0.000  4.17 54.55  0.37     0  2499 282.9  0.98  0.76   0.0  1.80  1.04  1.32  0.66  0.38  0.38  0.46  0.13  0.04  0.01  0.00   1093    525    305
 1981 272    95    95  16.1     5  3.87  1367  2869  1462   755  6822  2166   67.5 0.214  2586  1584 0.429 0.619 0.000  4.06 56.53  0.38     0  2586 283.4  0.98  0.76   0.0  1.80  1.01  1.30  0.65  0.38  0.37  0.45  0.13  0.04  0.01  0.00   1113    538    312
 1981 273    96    96  16.1     5  3.81  1342  2844  1536   742  6837  2166   70.9 0.225  2651  1533 0.534 0.689 0.000  3.98 57.94  0.39     0  2651 284.0  0.98  0.76   0.0  1.80  0.97  1.27  0.64  0.37  0.36  0.45  0.13  0.04  0.01  0.00   1128    547    317
 1981 274    97    97  16.1     5  3.74  1315  2817  1606   730  6844  2166   74.1 0.235  2712  1447 0.563 0.709 0.000  3.90 59.20  0.40     0  2712 284.6  0.98  0.76   0.0  1.80  0.94  1.25  0.63  0.36  0.36  0.44  0.13  0.04  0.01  0.00   1150    561    325
 1981 275    98    98  16.1     5  3.61  1267  2780  1663   718  6809  2166   76.8 0.244  2762  1360 0.612 0.741 0.000  3.83 60.20  0.41     0  2762 285.2  0.98  0.76   0.0  1.80  0.93  1.23  0.62  0.36  0.35  0.43  0.12  0.04  0.01  0.00   1206    597    346
 1981 276    99    99  16.1     5  3.45  1209  2738  1792   707  6829  2166   82.7 0.262  2882  1277 0.000 0.000 0.000  3.73 62.20  0.42     0  2882 285.6  0.98  0.76   0.0  1.80  0.92  1.21  0.61  0.35  0.35  0.43  0.12  0.04  0.01  0.00   1274    640    371
 1981 277   100   100  16.1     5  3.28  1147  2694  1913   696  6833  2166   88.3 0.280  2993  1199 0.000 0.000 0.000  3.62 63.91  0.44     0  2993 286.1  0.98  0.76   0.0  1.80  0.90  1.19  0.60  0.35  0.34  0.42  0.12  0.04  0.01  0.00   1351    688    399
 1981 278   101   101  16.1     5  3.11  1086  2651  2032   685  6840  2166   93.8 0.297  3103  1199 0.000 0.000 0.000  3.51 65.48  0.45     0  3103 286.5  0.98  0.76   0.0  1.80  0.89  1.18  0.59  0.34  0.34  0.41  0.12  0.04  0.01  0.00   1426    736    427
 1981 279   102   102  16.1     5  2.95  1027  2609  2143   675  6842  2166   98.9 0.313  3206  1140 0.000 0.000 0.000  3.41 66.84  0.47     0  3206 287.0  0.98  0.76   0.0  1.80  0.86  1.16  0.58  0.34  0.33  0.41  0.12  0.04  0.01  0.00   1502    784    455
 1981 280   103   103  16.1     5  2.90  1009  2591  2246   664  6901  2166  103.7 0.325  3301  1140 0.000 0.277 0.000  3.31 68.04  0.48     0  3301 287.4  0.98  0.76   0.0  1.80  0.85  1.14  0.57  0.33  0.33  0.40  0.12  0.04  0.01  0.00   1513    791    459
 1981 281   104   104  16.1     5  2.85   991  2572  2321   652  6932  2166  107.1 0.335  3368  1140 0.000 0.000 0.000  3.22 68.90  0.49     0  3368 288.0  0.98  0.76   0.0  1.80  0.84  1.12  0.56  0.33  0.32  0.40  0.11  0.04  0.01  0.00   1524    798    463
 1981 282   105   105  16.1     5  2.81   975  2555  2402   641  6973  2166  110.9 0.344  3442  1140 0.000 0.000 0.000  3.13 69.77  0.49     0  3442 288.5  0.98  0.76   0.0  1.80  0.82  1.10  0.56  0.32  0.32  0.39  0.11  0.04  0.01  0.00   1534    805    467
 1981 283   106   106  16.1     5  2.77   960  2540  2485   629  7018  2166  114.7 0.354  3519  1140 0.000 0.000 0.000  3.04 70.61  0.50     0  3519 289.0  0.98  0.76   0.0  1.80  0.81  1.08  0.55  0.32  0.31  0.38  0.11  0.04  0.01  0.00   1544    811    470
 1981 284   107   107  16.1     5  2.74   945  2523  2531   618  7027  2166  116.9 0.360  3559  1140 0.000 0.000 0.000  2.96 71.12  0.51     0  3559 289.6  0.98  0.76   0.0  1.80  0.79  1.07  0.54  0.31  0.31  0.38  0.11  0.03  0.01  0.00   1553    816    473
 1981 285   108   108  16.1     5  2.71   933  2510  2610   610  7075  2166  120.5 0.369  3632  1140 0.000 0.000 0.000  2.88 71.84  0.51     0  3632 290.1  0.98  0.76   0.0  1.80  0.78  1.05  0.53  0.31  0.30  0.37  0.11  0.03  0.01  0.00   1560    821    476
 1981 286   109   109  16.1     5  2.68   921  2498  2681   602  7119  2166  123.8 0.377  3699  1140 0.000 0.000 0.000  2.81 72.48  0.52     0  3699 290.5  0.98  0.76   0.0  1.80  0.77  1.04  0.52  0.30  0.30  0.37  0.11  0.03  0.01  0.00   1568    825    479
 1981 287   110   110  16.1     5  2.65   911  2487  2747   594  7158  2166  126.8 0.384  3761  1140 0.000 0.000 0.000  2.75 73.05  0.53     0  3761 290.9  0.98  0.76   0.0  1.80  0.75  1.03  0.52  0.30  0.30  0.36  0.10  0.03  0.01  0.00   1574    830    481
 1981 288   111   111  16.1     5  2.62   900  2475  2805   586  7188  2166  129.5 0.390  3814  1140 0.120 0.413 0.000  2.68 73.54  0.53     0  3814 291.4  0.98  0.76   0.0  1.80  0.73  1.01  0.51  0.29  0.29  0.36  0.10  0.03  0.01  0.00   1581    834    484
 1981 289   112   112  16.1     5  2.60   890  2463  2837   580  7194  2166  131.0 0.394  3842  1140 0.425 0.617 0.000  2.61 73.84  0.53     0  3842 291.9  0.98  0.76   0.0  1.80  0.72  1.00  0.50  0.29  0.29  0.35  0.10  0.03  0.01  0.00   1587    838    486
 1981 290   113   113  16.1     5  2.57   881  2453  2887   573  7223  2166  133.3 0.400  3889  1140 0.000 0.000 0.000  2.56 74.25  0.54     0  3889 292.3  0.98  0.76   0.0  1.80  0.71  0.99  0.50  0.29  0.28  0.35  0.10  0.03  0.01  0.00   1592    841    488
 1981 291   114   114  16.1     5  2.55   872  2443  2936   564  7249  2166  135.5 0.405  3934  1140 0.000 0.000 0.000  2.51 74.63  0.54     0  3934 292.8  0.98  0.76   0.0  1.80  0.70  0.98  0.49  0.28  0.28  0.34  0.10  0.03  0.01  0.00   1597    844    490
 1981 292   115   115  16.1     7  2.54   865  2434  2979   557  7273  2166  137.5 0.410  3974  1140 0.000 0.264 0.000  2.46 74.97  0.55     0  3974 293.3  0.98  0.76   0.0  1.80  0.69  0.96  0.49  0.28  0.28  0.34  0.10  0.03  0.01  0.00   1602    847    491
 1981 293   116   116  16.1     7  2.02   687  2327  3008   552  7014  2166  138.9 0.429  4000  1140 0.000 0.010 0.000  2.40 75.20  0.57     0  4000 293.8  0.98  0.76   0.0  1.80  0.68  0.96  0.48  0.28  0.27  0.34  0.10  0.03  0.01  0.00   1875   1020    592
 1981 294   117   117  16.1     7  1.61   546  2240  3026   545  6802  2166  139.7 0.445  4015  1140 0.430 0.620 0.000  2.35 75.36  0.59     0  4015 294.4  0.98  0.76   0.0  1.80  0.66  0.94  0.47  0.27  0.27  0.33  0.10  0.03  0.01  0.00   2092   1157    671
 1981 295   118   118  16.1     7  1.28   435  2171  3035   536  6629  2166  140.1 0.458  4023  1140 0.418 0.612 0.000  2.32 75.45  0.61     0  4023 295.1  0.98  0.76   0.0  1.80  0.64  0.93  0.47  0.27  0.27  0.33  0.09  0.03  0.01  0.00   2265   1267    735
 1981 296   119   119  16.1     7  1.03   347  2116  3036   528  6487  2166  140.2 0.468  4023  1140 0.470 0.647 0.000  2.32 75.47  0.62     0  4023 295.7  0.98  0.76   0.0  1.80  0.63  0.91  0.46  0.27  0.26  0.32  0.09  0.03  0.01  0.00   2402   1354    785
 1981 297   120   120  16.1     7  0.82   276  2071  3044   520  6377  2166  140.6 0.477  4029  1140 0.000 0.000 0.000  2.29 75.55  0.63     0  4029 296.3  0.98  0.76   0.0  1.80  0.62  0.90  0.45  0.26  0.26  0.32  0.09  0.03  0.01  0.00   2512   1423    825
 1981 298   121   121  16.1     7  0.65   221  2036  3047   513  6287  2166  140.7 0.485  4031  1140 0.000 0.000 0.000  2.28 75.59  0.64     0  4031 296.8  0.98  0.76   0.0  1.80  0.61  0.89  0.45  0.26  0.26  0.31  0.09  0.03  0.01  0.00   2599   1478    857
 1981 299   122   122  16.1     7  0.52   176  2007  3047   504  6214  2166  140.7 0.490  4030  1140 0.000 0.000 0.000  2.28 75.60  0.65     0  4030 297.4  0.98  0.76   0.0  1.80  0.60  0.87  0.44  0.25  0.25  0.31  0.09  0.03  0.01  0.00   2669   1523    883
 1981 300   123   123  16.1     7  0.42   141  1984  3047   495  6155  2166  140.7 0.495  4030  1140 0.000 0.000 0.000  2.29 75.60  0.65     0  4030 297.9  0.98  0.76   0.0  1.80  0.59  0.86  0.43  0.25  0.25  0.30  0.09  0.03  0.01  0.00   2725   1558    903
 1981 301   124   124  16.1     7  0.34   112  1966  3047   489  6108  2166  140.7 0.499  4030  1140 0.000 0.000 0.000  2.29 75.61  0.66     0  4030 298.3  0.98  0.76   0.0  1.80  0.58  0.85  0.43  0.25  0.24  0.30  0.09  0.03  0.01  0.00   2769   1586    920
 1981 302   125   125  16.1     7  0.27    90  1951  3047   483  6070  2166  140.7 0.502  4029  1140 0.000 0.000 0.000  2.29 75.62  0.66     0  4029 298.8  0.98  0.76   0.0  1.80  0.56  0.84  0.42  0.24  0.24  0.29  0.08  0.03  0.01  0.00   2804   1608    933
 1981 303   126   126  16.1     7  0.21    72  1938  3047   474  6039  2166  140.7 0.505  4029  1140 0.000 0.000 0.000  2.30 75.63  0.67     0  4029 299.2  0.98  0.76   0.0  1.80  0.54  0.82  0.41  0.24  0.24  0.29  0.08  0.03  0.01  0.00   2833   1626    943
 1981 304   127   127  16.1     8  0.17    57  1928  3047   469  6014  2166  140.7 0.507  4028  1140 0.000 0.000 0.000  2.30 75.63  0.67     0  4028 299.6  0.98  0.76   0.0  1.80  0.53  0.81  0.41  0.24  0.23  0.29  0.08  0.03  0.01  0.00   2856   1641    952
