*GROWTH ASPECTS OUTPUT FILE

*RUN   1        :  DRYLAND - 0 KG N/HA     
 MODEL          : CRGRO020 - BAHIA     
 EXPERIMENT     : ALTH5601 G0     ALTH5601G0 BAHIA ON GREENVILLE FINE SANDY LOAM
 TREATMENT  1   :  DRYLAND - 0 KG N/HA     

@YEAR DOY   DAS   DAP  L#SD  GSTD  LAID  LWAD  SWAD  GWAD  RWAD  CWAD  G#AD   GWGD  HIAD  PWAD  P#AD  WSPD  WSGD  NSTD  LN%D  SH%D  HIPD  PWDD  PWTD  SLAD  CHTD  CWID  NWAD  RDPD  RL1D  RL2D  RL3D  RL4D  RL5D  RL6D  RL7D  RL8D  RL9D  RL10   CDAD   LDAD   SDAD
 1956 070    31     0   0.0     0  0.00     0     0     0     0     0     0    0.0 0.000     0     0 0.000 0.000 0.000  0.00  0.00  0.00     0     0  92.6  0.00  0.00   0.0  0.00  0.00  0.00  0.00  0.00  0.00  0.00  0.00  0.00  0.00  0.00      0      0      0
 1956 074    35     4   0.0     0  0.00     0     0     0     0     0     0    0.0 0.000     0     0 0.000 0.000 0.000  0.00  0.00  0.00     0     0  92.6  0.00  0.00   0.0  0.00  0.00  0.00  0.00  0.00  0.00  0.00  0.00  0.00  0.00  0.00      0      0      0
 1956 081    42    11   0.0     0  0.06    65    65     0    32   130     0    0.0 0.000     0     0 0.000 0.000 0.000  2.24  0.00  0.00     0     0  94.7  0.03  0.03   0.0  0.26  0.10  0.10  0.06  0.00  0.00  0.00  0.00  0.00  0.00  0.00      0      0      0
 1956 088    49    18   0.2     0  0.09    77    76     0    38   153     0    0.0 0.000     0     0 0.000 0.000 0.037  2.18  0.00  0.00     0     0 112.3  0.03  0.03   0.0  0.30  0.09  0.12  0.08  0.00  0.00  0.00  0.00  0.00  0.00  0.00      0      0      0
 1956 095    56    25   0.5     0  0.14    98    97     0    54   196     0    0.0 0.000     0     0 0.000 0.000 0.000  2.20  0.00  0.00     0     0 139.0  0.04  0.04   0.0  0.34  0.10  0.18  0.11  0.00  0.00  0.00  0.00  0.00  0.00  0.00      0      0      0
 1956 102    63    32   0.7     0  0.19   118   116     0    62   235     0    0.0 0.000     0     0 0.000 0.000 0.000  2.22  0.00  0.00     0     0 159.3  0.05  0.04   0.0  0.37  0.12  0.22  0.10  0.01  0.00  0.00  0.00  0.00  0.00  0.00      0      0      0
 1956 109    70    39   1.0     0  0.25   150   147     0    99   297     0    0.0 0.000     0     0 0.000 0.000 0.000  2.16  0.00  0.00     0     0 169.8  0.06  0.05   0.0  0.40  0.13  0.35  0.16  0.02  0.00  0.00  0.00  0.00  0.00  0.00      0      0      0
 1956 116    77    46   1.1     0  0.33   185   183     0   134   368     0    0.0 0.000     0     0 0.000 0.000 0.143  2.01  0.00  0.00     0     0 178.3  0.06  0.06   0.0  0.44  0.12  0.46  0.23  0.05  0.00  0.00  0.00  0.00  0.00  0.00      2      1      1
 1956 123    84    53   1.6     0  0.43   256   252     0   274   508     0    0.0 0.000     0     0 0.000 0.000 0.394  1.47  0.00  0.00     0     0 167.1  0.08  0.07   0.0  0.51  0.10  0.88  0.51  0.18  0.02  0.00  0.00  0.00  0.00  0.00      8      5      3
 1956 130    91    60   2.0     0  0.58   309   306     0   314   615     0    0.0 0.000     0     0 0.000 0.000 0.285  1.43  0.00  0.00     0     0 188.9  0.10  0.09   0.0  0.58  0.24  0.97  0.51  0.20  0.04  0.00  0.00  0.00  0.00  0.00     13      9      4
 1956 137    98    67   2.5     0  0.70   378   375     0   395   753     0    0.0 0.000     0     0 0.000 0.000 0.000  1.21  0.00  0.00     0     0 184.8  0.12  0.10   0.0  0.67  0.21  1.18  0.64  0.25  0.10  0.00  0.00  0.00  0.00  0.00     20     13      7
 1956 144   105    74   2.8     0  0.79   415   413     0   426   828     0    0.0 0.000     0     0 0.139 0.426 0.000  1.18  0.00  0.00     0     0 190.2  0.13  0.10   0.0  0.74  0.19  1.24  0.70  0.28  0.14  0.02  0.00  0.00  0.00  0.00     25     17      8
 1956 151   112    81   3.3     0  0.89   457   453     0   439   911     0    0.0 0.000     0     0 0.000 0.000 0.073  1.25  0.00  0.00     0     0 194.5  0.15  0.10   0.0  0.84  0.21  1.24  0.71  0.30  0.16  0.03  0.00  0.00  0.00  0.00     29     20     10
 1956 158   119    88   1.0     0  0.23   115   114     0   433   228     0    0.0 0.000     0     0 0.000 0.000 0.000  1.41  0.00  0.00     0     0 197.2  0.06  0.00   0.0  0.91  0.19  1.22  0.70  0.29  0.16  0.03  0.00  0.00  0.00  0.00    758    386    372
 1956 165   126    95   1.5     0  0.30   154   153     0   432   307     0    0.0 0.000     0     0 0.000 0.000 0.097  1.40  0.00  0.00     0     0 196.8  0.08  0.03   0.0  1.00  0.18  1.19  0.69  0.29  0.16  0.05  0.00  0.00  0.00  0.00    760    387    373
 1956 172   133   102   2.0     0  0.42   210   208     0   443   418     0    0.0 0.000     0     0 0.000 0.000 0.000  1.49  0.00  0.00     0     0 198.9  0.11  0.05   0.0  1.09  0.19  1.19  0.64  0.30  0.18  0.06  0.01  0.00  0.00  0.00    763    389    374
 1956 179   140   109   2.6     0  0.56   281   279     0   462   560     0    0.0 0.000     0     0 0.000 0.000 0.000  1.37  0.00  0.00     0     0 199.1  0.13  0.08   0.0  1.20  0.19  1.19  0.66  0.31  0.19  0.08  0.02  0.00  0.00  0.00    769    393    376
 1956 186   147   116   0.9     0  0.16    77    77     0   456   154     0    0.0 0.000     0     0 0.000 0.000 0.000  1.61  0.00  0.00     0     0 201.8  0.07  0.01   0.0  1.28  0.17  1.16  0.64  0.30  0.19  0.09  0.03  0.00  0.00  0.00   1255    637    618
 1956 193   154   123   1.5     0  0.25   129   128     0   460   257     0    0.0 0.000     0     0 0.000 0.000 0.095  1.77  0.00  0.00     0     0 192.3  0.09  0.04   0.0  1.38  0.16  1.13  0.63  0.30  0.19  0.10  0.04  0.00  0.00  0.00   1256    638    618
 1956 200   161   130   2.0     0  0.38   200   200     0   476   400     0    0.0 0.000     0     0 0.000 0.000 0.000  1.51  0.00  0.00     0     0 190.6  0.12  0.07   0.0  1.48  0.15  1.13  0.63  0.30  0.20  0.12  0.06  0.01  0.00  0.00   1261    641    620
 1956 207   168   137   2.6     0  0.51   260   261     0   486   521     0    0.0 0.000     0     0 0.000 0.000 0.000  1.40  0.00  0.00     0     0 196.5  0.15  0.10   0.0  1.57  0.14  1.11  0.63  0.30  0.21  0.13  0.07  0.02  0.00  0.00   1266    644    622
 1956 214   175   144   0.7     0  0.13    68    68     0   501   136     0    0.0 0.000     0     0 0.000 0.000 0.000  1.28  0.00  0.00     0     0 194.1  0.06 -0.01   0.0  1.65  0.13  1.08  0.63  0.30  0.22  0.14  0.09  0.04  0.01  0.00   1745    884    861
 1956 221   182   151   1.3     0  0.18    89    89     0   484   178     0    0.0 0.000     0     0 0.000 0.000 0.000  1.87  0.00  0.00     0     0 199.8  0.09  0.02   0.0  1.73  0.12  1.01  0.60  0.29  0.21  0.13  0.08  0.04  0.01  0.00   1745    885    861
 1956 228   189   158   1.8     0  0.32   162   161     0   493   323     0    0.0 0.000     0     0 0.000 0.000 0.000  1.81  0.00  0.00     0     0 195.5  0.11  0.05   0.0  1.83  0.11  0.99  0.60  0.29  0.21  0.14  0.10  0.05  0.01  0.00   1749    887    862
 1956 235   196   165   2.4     0  0.48   248   246     0   517   494     0    0.0 0.000     0     0 0.000 0.000 0.000  1.53  0.00  0.00     0     0 194.1  0.14  0.08   0.0  1.89  0.11  0.99  0.60  0.29  0.22  0.15  0.11  0.06  0.02  0.01   1754    891    864
 1956 242   203   172   2.9     0  0.64   324   322     0   536   646     0    0.0 0.000     0     0 0.000 0.106 0.018  1.42  0.00  0.00     0     0 199.1  0.16  0.10   0.0  1.89  0.11  0.99  0.61  0.30  0.23  0.16  0.12  0.08  0.03  0.02   1760    895    866
 1956 249   210   179   1.0     0  0.21   102   101     0   528   203     0    0.0 0.000     0     0 0.000 0.000 0.000  1.61  0.00  0.00     0     0 201.1  0.09  0.02   0.0  1.89  0.10  0.95  0.59  0.29  0.22  0.16  0.12  0.08  0.04  0.02   2287   1159   1129
 1956 256   217   186   1.4     0  0.29   145   145     0   529   290     0    0.0 0.000     0     0 0.000 0.000 0.000  1.58  0.00  0.00     0     0 201.4  0.11  0.04   0.0  1.89  0.10  0.91  0.58  0.29  0.22  0.17  0.13  0.08  0.04  0.03   2290   1160   1129
 1956 263   224   193   1.8     0  0.38   194   193     0   542   387     0    0.0 0.000     0     0 0.000 0.000 0.000  1.50  0.00  0.00     0     0 196.2  0.13  0.06   0.0  1.89  0.09  0.88  0.59  0.29  0.23  0.17  0.14  0.09  0.05  0.03   2292   1162   1130
 1956 270   231   200   2.2     0  0.50   260   257     0   564   517     0    0.0 0.000     0     0 0.000 0.000 0.000  1.49  0.00  0.00     0     0 192.4  0.14  0.07   0.0  1.89  0.10  0.89  0.55  0.29  0.24  0.18  0.15  0.10  0.06  0.04   2295   1164   1131
 1956 277   238   207   0.7     0  0.14    75    72     0   581   147     0    0.0 0.000     0     0 0.000 0.000 0.000  1.90  0.00  0.00     0     0 189.7  0.09  0.02   0.0  1.89  0.10  0.90  0.50  0.27  0.22  0.18  0.16  0.11  0.07  0.05   2760   1399   1361
 1956 284   245   214   1.0     0  0.24   124   120     0   588   244     0    0.0 0.000     0     0 0.000 0.000 0.130  1.92  0.00  0.00     0     0 194.0  0.10  0.03   0.0  1.89  0.10  0.90  0.41  0.21  0.17  0.14  0.13  0.10  0.07  0.06   2761   1399   1362
 1956 291   252   221   1.3     0  0.33   176   170     0   608   346     0    0.0 0.000     0     0 0.000 0.000 0.267  1.65  0.00  0.00     0     0 189.5  0.11  0.04   0.0  1.89  0.10  0.93  0.43  0.18  0.15  0.12  0.11  0.10  0.08  0.06   2763   1401   1362
 1956 298   259   228   1.6     0  0.44   221   215     0   620   436     0    0.0 0.000     0     0 0.000 0.000 0.000  1.56  0.00  0.00     0     0 197.2  0.12  0.06   0.0  1.89  0.11  0.94  0.38  0.15  0.12  0.10  0.10  0.10  0.08  0.07   2765   1402   1363
 1956 305   266   235   1.8     0  0.51   262   255     0   637   517     0    0.0 0.000     0     0 0.000 0.000 0.333  1.43  0.00  0.00     0     0 194.7  0.13  0.06   0.0  1.89  0.10  0.96  0.39  0.14  0.10  0.10  0.10  0.10  0.09  0.08   2768   1404   1364
 1956 312   273   242   2.1     0  0.58   299   291     0   654   590     0    0.0 0.000     0     0 0.000 0.000 0.093  1.31  0.00  0.00     0     0 193.9  0.14  0.07   0.0  1.89  0.11  0.98  0.41  0.14  0.10  0.10  0.10  0.10  0.09  0.08   2771   1406   1365
 1956 319   280   249   2.2     0  0.61   309   301     0   654   609     0    0.0 0.000     0     0 0.000 0.000 0.104  1.38  0.00  0.00     0     0 196.1  0.14  0.08   0.0  1.89  0.11  0.98  0.36  0.11  0.10  0.10  0.10  0.10  0.09  0.08   2772   1407   1365
 1956 326   287   256   2.3     0  0.64   324   315     0   658   640     0    0.0 0.000     0     0 0.000 0.000 0.372  1.42  0.00  0.00     0     0 197.4  0.15  0.08   0.0  1.89  0.11  0.98  0.32  0.10  0.10  0.10  0.10  0.10  0.09  0.08   2773   1408   1366
 1956 333   294   263   2.4     0  0.64   323   314     0   656   637     0    0.0 0.000     0     0 0.000 0.000 0.000  1.42  0.00  0.00     0     0 198.0  0.15  0.08   0.0  1.89  0.10  0.98  0.32  0.10  0.10  0.10  0.10  0.10  0.09  0.08   2773   1408   1366
 1956 340   301   270   2.4     0  0.66   330   321     0   655   651     0    0.0 0.000     0     0 0.000 0.000 0.000  1.52  0.00  0.00     0     0 199.7  0.15  0.09   0.0  1.89  0.10  0.98  0.32  0.10  0.10  0.10  0.10  0.10  0.09  0.08   2773   1408   1366
 1956 347   308   277   2.6     0  0.69   364   351     0   679   715     0    0.0 0.000     0     0 0.000 0.000 0.000  1.38  0.00  0.00     0     0 191.0  0.16  0.09   0.0  1.89  0.10  1.00  0.34  0.11  0.10  0.11  0.11  0.11  0.10  0.09   2776   1409   1367
 1956 354   315   284   2.9     0  0.80   397   385     0   691   781     0    0.0 0.000     0     0 0.000 0.000 0.398  1.37  0.00  0.00     0     0 202.1  0.17  0.10   0.0  1.89  0.13  1.01  0.30  0.10  0.10  0.10  0.10  0.10  0.10  0.10   2779   1412   1368
 1956 361   322   291   3.1     0  0.84   409   397     0   696   805     0    0.0 0.000     0     0 0.000 0.000 0.000  1.36  0.00  0.00     0     0 206.7  0.18  0.10   0.0  1.89  0.13  1.02  0.25  0.10  0.10  0.10  0.10  0.09  0.10  0.10   2781   1413   1368
 1957 002   329   298   3.1     0  0.86   414   402     0   696   816     0    0.0 0.000     0     0 0.000 0.000 0.000  1.37  0.00  0.00     0     0 207.8  0.18  0.10   0.0  1.89  0.12  1.01  0.23  0.10  0.10  0.10  0.10  0.10  0.10  0.10   2781   1413   1368
 1957 009   336   305   3.2     0  0.86   412   400     0   692   812     0    0.0 0.000     0     0 0.000 0.000 0.000  1.39  0.00  0.00     0     0 209.1  0.18  0.10   0.0  1.89  0.12  1.01  0.20  0.10  0.10  0.10  0.10  0.10  0.10  0.10   2781   1413   1368
 1957 016   343   312   3.3     0  0.89   418   407     0   691   825     0    0.0 0.000     0     0 0.000 0.000 0.000  1.41  0.00  0.00     0     0 212.8  0.19  0.10   0.0  1.89  0.12  1.01  0.20  0.10  0.10  0.10  0.10  0.10  0.10  0.10   2782   1413   1369
 1957 023   350   319   3.4     0  0.91   424   412     0   691   836     0    0.0 0.000     0     0 0.000 0.000 0.000  1.46  0.00  0.00     0     0 214.3  0.19  0.10   0.0  1.89  0.11  1.00  0.20  0.10  0.10  0.10  0.10  0.10  0.10  0.10   2782   1413   1369
 1957 030   357   326   3.5     0  0.97   443   432     0   696   875     0    0.0 0.000     0     0 0.000 0.000 0.000  1.42  0.00  0.00     0     0 219.2  0.20  0.10   0.0  1.89  0.14  1.01  0.16  0.10  0.10  0.10  0.10  0.10  0.10  0.10   2785   1416   1370
 1957 037   364   333   3.9     0  1.05   491   477     0   731   968     0    0.0 0.000     0     0 0.000 0.000 0.194  1.26  0.00  0.00     0     0 214.5  0.21  0.10   0.0  1.89  0.22  1.06  0.16  0.10  0.10  0.10  0.10  0.10  0.10  0.10   2791   1419   1372
 1957 044   371   340   4.1     0  1.12   521   508     0   751  1029     0    0.0 0.000     0     0 0.000 0.000 0.000  1.20  0.00  0.00     0     0 215.8  0.23  0.10   0.0  1.89  0.22  1.08  0.18  0.10  0.10  0.10  0.10  0.10  0.10  0.10   2795   1422   1373
 1957 051   378   347   4.2     0  1.14   524   512     0   750  1036     0    0.0 0.000     0     0 0.000 0.000 0.000  1.21  0.00  0.00     0     0 217.0  0.23  0.10   0.0  1.89  0.21  1.08  0.18  0.10  0.10  0.10  0.10  0.10  0.10  0.10   2795   1422   1373
 1957 058   385   354   4.4     0  1.18   528   516     0   744  1044     0    0.0 0.000     0     0 0.000 0.000 0.000  1.25  0.00  0.00     0     0 222.8  0.24  0.10   0.0  1.89  0.21  1.07  0.16  0.09  0.10  0.10  0.10  0.10  0.10  0.10   2796   1423   1373
 1957 065   392   361   4.5     0  1.18   527   516     0   739  1043     0    0.0 0.000     0     0 0.000 0.000 0.000  1.29  0.00  0.00     0     0 224.7  0.24  0.10   0.0  1.89  0.21  1.06  0.12  0.09  0.10  0.10  0.10  0.10  0.10  0.10   2796   1423   1373
 1957 072   399   368   4.5     0  1.21   533   522     0   738  1055     0    0.0 0.000     0     0 0.000 0.000 0.000  1.31  0.00  0.00     0     0 226.4  0.24  0.10   0.0  1.89  0.21  1.06  0.11  0.10  0.10  0.10  0.10  0.10  0.10  0.10   2797   1423   1374
 1957 079   406   375   4.8     0  1.25   570   557     0   765  1127     0    0.0 0.000     0     0 0.000 0.000 0.000  1.21  0.00  0.00     0     0 219.8  0.25  0.10   0.0  1.89  0.23  1.09  0.14  0.10  0.10  0.10  0.10  0.10  0.10  0.10   2801   1426   1375
 1957 086   413   382   4.9     0  1.29   583   571     0   770  1154     0    0.0 0.000     0     0 0.000 0.000 0.000  1.22  0.00  0.00     0     0 220.4  0.26  0.10   0.0  1.89  0.24  1.09  0.12  0.10  0.10  0.10  0.10  0.10  0.10  0.10   2803   1427   1376
 1957 093   420   389   5.1     0  1.32   600   588     0   780  1188     0    0.0 0.000     0     0 0.000 0.000 0.193  1.19  0.00  0.00     0     0 220.6  0.26  0.10   0.0  1.89  0.25  1.10  0.12  0.10  0.10  0.10  0.10  0.10  0.10  0.10   2806   1429   1377
 1957 100   427   396   5.3     0  1.40   619   610     0   784  1230     0    0.0 0.000     0     0 0.000 0.000 0.000  1.15  0.00  0.00     0     0 225.9  0.28  0.10   0.0  1.89  0.29  1.11  0.10  0.10  0.10  0.10  0.10  0.10  0.10  0.10   2811   1432   1378
 1957 107   434   403   5.5     0  1.42   625   617     0   780  1243     0    0.0 0.000     0     0 0.000 0.000 0.000  1.16  0.00  0.00     0     0 227.9  0.28  0.10   0.0  1.89  0.27  1.10  0.10  0.10  0.10  0.10  0.10  0.10  0.10  0.10   2812   1433   1379
 1957 114   441   410   5.9     0  1.48   636   632     0   764  1268     0    0.0 0.000     0     0 0.000 0.000 0.000  1.15  0.00  0.00     0     0 232.3  0.30  0.10   0.0  1.89  0.28  1.08  0.10  0.10  0.10  0.10  0.10  0.09  0.10  0.10   2817   1436   1380
 1957 121   448   417   6.3     0  1.51   640   638     0   741  1278     0    0.0 0.000     0     0 0.000 0.000 0.000  1.15  0.00  0.00     0     0 235.1  0.32  0.10   0.0  1.89  0.25  1.05  0.10  0.10  0.10  0.10  0.10  0.09  0.10  0.10   2820   1439   1381
 1957 128   455   424   6.6     0  1.52   641   640     0   723  1281     0    0.0 0.000     0     0 0.000 0.000 0.000  1.18  0.00  0.00     0     0 236.5  0.34  0.10   0.0  1.89  0.25  1.02  0.10  0.09  0.09  0.09  0.09  0.09  0.09  0.09   2821   1439   1382
 1957 135   462   431   7.0     0  1.54   648   648     0   701  1296     0    0.0 0.000     0     0 0.000 0.000 0.000  1.18  0.00  0.00     0     0 237.5  0.36  0.10   0.0  1.89  0.23  0.99  0.10  0.09  0.09  0.09  0.09  0.09  0.09  0.09   2822   1440   1382
 1957 142   469   438   7.5     0  1.57   659   660     0   676  1320     0    0.0 0.000     0     0 0.000 0.000 0.000  1.19  0.00  0.00     0     0 238.4  0.39  0.10   0.0  1.89  0.23  0.95  0.10  0.09  0.09  0.09  0.09  0.09  0.09  0.09   2824   1441   1383
 1957 149   476   445   8.0     0  1.59   668   669     0   650  1337     0    0.0 0.000     0     0 0.000 0.000 0.000  1.19  0.00  0.00     0     0 238.5  0.42  0.10   0.0  1.89  0.20  0.91  0.10  0.09  0.09  0.09  0.09  0.09  0.09  0.09   2825   1442   1383
 1957 156   483   452   1.9     0  0.32   135   136     0   622   271     0    0.0 0.000     0     0 0.000 0.000 0.000  1.19  0.00  0.00     0     0 239.2  0.18 -0.17   0.0  1.89  0.19  0.87  0.10  0.09  0.09  0.09  0.09  0.08  0.08  0.08   3900   1979   1921
 1957 163   490   459   2.4     0  0.32   135   136     0   591   271     0    0.0 0.000     0     0 0.000 0.000 0.000  1.22  0.00  0.00     0     0 239.5  0.20 -0.15   0.0  1.89  0.17  0.83  0.09  0.08  0.08  0.08  0.08  0.08  0.08  0.08   3900   1979   1921
 1957 170   497   466   3.0     0  0.35   149   150     0   566   300     0    0.0 0.000     0     0 0.000 0.000 0.000  1.33  0.00  0.00     0     0 237.0  0.23 -0.12   0.0  1.89  0.16  0.79  0.09  0.08  0.08  0.08  0.08  0.08  0.08  0.08   3901   1980   1922
 1957 177   504   473   3.6     0  0.40   169   171     0   546   340     0    0.0 0.000     0     0 0.000 0.000 0.000  1.34  0.00  0.00     0     0 235.3  0.26 -0.09   0.0  1.89  0.15  0.76  0.09  0.08  0.08  0.08  0.08  0.08  0.08  0.08   3903   1981   1922
 1957 184   511   480   1.0     0  0.10    42    42     0   527    84     0    0.0 0.000     0     0 0.000 0.000 0.000  1.42  0.00  0.00     0     0 230.3  0.15 -0.20   0.0  1.89  0.15  0.74  0.10  0.08  0.08  0.08  0.08  0.08  0.07  0.07   4203   2130   2072
 1957 191   518   487   1.5     0  0.12    54    55     0   506   109     0    0.0 0.000     0     0 0.000 0.000 0.000  1.45  0.00  0.00     0     0 222.6  0.18 -0.18   0.0  1.89  0.14  0.71  0.10  0.08  0.08  0.08  0.08  0.07  0.07  0.07   4203   2130   2073
 1957 198   525   494   2.0     0  0.16    74    75     0   489   149     0    0.0 0.000     0     0 0.000 0.000 0.000  1.49  0.00  0.00     0     0 216.1  0.20 -0.15   0.0  1.89  0.12  0.68  0.10  0.08  0.08  0.08  0.08  0.07  0.07  0.07   4204   2131   2073
 1957 205   532   501   2.6     0  0.20    96    97     0   476   193     0    0.0 0.000     0     0 0.000 0.000 0.172  1.38  0.00  0.00     0     0 207.1  0.23 -0.12   0.0  1.89  0.11  0.66  0.11  0.08  0.08  0.08  0.08  0.07  0.07  0.07   4206   2132   2074
 1957 212   539   508   3.1     0  0.25   121   122     0   465   243     0    0.0 0.000     0     0 0.000 0.000 0.000  1.34  0.00  0.00     0     0 207.9  0.26 -0.09   0.0  1.89  0.10  0.65  0.10  0.08  0.08  0.08  0.08  0.07  0.07  0.07   4208   2134   2074
 1957 219   546   515   1.1     0  0.06    28    29     0   442    57     0    0.0 0.000     0     0 0.000 0.000 0.000  1.27  0.00  0.00     0     0 207.2  0.18 -0.17   0.0  1.89  0.10  0.62  0.10  0.07  0.07  0.08  0.08  0.07  0.07  0.07   4402   2230   2172
 1957 226   553   522   1.7     0  0.08    40    40     0   424    80     0    0.0 0.000     0     0 0.000 0.000 0.000  1.95  0.00  0.00     0     0 201.4  0.20 -0.15   0.0  1.89  0.09  0.59  0.10  0.07  0.07  0.07  0.07  0.07  0.06  0.07   4403   2231   2172
 1957 233   560   529   2.2     0  0.12    62    62     0   414   124     0    0.0 0.000     0     0 0.000 0.000 0.298  1.74  0.00  0.00     0     0 196.3  0.23 -0.12   0.0  1.89  0.09  0.57  0.10  0.07  0.07  0.07  0.07  0.07  0.06  0.06   4404   2231   2172
 1957 240   567   536   2.7     0  0.16    93    92     0   423   185     0    0.0 0.000     0     0 0.000 0.000 0.466  1.27  0.00  0.00     0     0 169.9  0.25 -0.09   0.0  1.89  0.09  0.58  0.12  0.08  0.08  0.08  0.08  0.08  0.07  0.07   4406   2233   2173
 1957 247   574   543   0.8     0  0.05    25    24     0   413    49     0    0.0 0.000     0     0 0.000 0.000 0.000  1.43  0.00  0.00     0     0 192.7  0.19 -0.16   0.0  1.89  0.08  0.56  0.12  0.08  0.08  0.08  0.08  0.08  0.07  0.07   4567   2314   2253
 1957 254   581   550   1.3     0  0.06    32    29     0   398    61     0    0.0 0.000     0     0 0.000 0.000 0.000  2.07  0.00  0.00     0     0 198.4  0.21 -0.14   0.0  1.89  0.08  0.54  0.12  0.08  0.08  0.08  0.08  0.07  0.06  0.07   4567   2314   2253
 1957 261   588   557   1.8     0  0.12    55    49     0   389   104     0    0.0 0.000     0     0 0.000 0.000 0.000  2.12  0.00  0.00     0     0 214.1  0.23 -0.12   0.0  1.89  0.09  0.53  0.10  0.08  0.08  0.08  0.08  0.07  0.06  0.07   4567   2314   2253
 1957 268   595   564   2.3     0  0.17    82    75     0   393   157     0    0.0 0.000     0     0 0.000 0.000 0.000  1.71  0.00  0.00     0     0 203.1  0.25 -0.09   0.0  1.89  0.10  0.53  0.10  0.08  0.08  0.08  0.08  0.08  0.07  0.07   4569   2315   2254
 1957 275   602   571   0.5     0  0.04    20    18     0   397    39     0    0.0 0.000     0     0 0.000 0.000 0.210  1.58  0.00  0.00     0     0 204.9  0.22 -0.13   0.0  1.89  0.10  0.54  0.10  0.09  0.08  0.09  0.09  0.08  0.07  0.07   4717   2393   2324
 1957 282   609   578   0.8     0  0.05    24    20     0   390    44     0    0.0 0.000     0     0 0.000 0.000 0.431  1.74  0.00  0.00     0     0 200.7  0.23 -0.12   0.0  1.89  0.10  0.53  0.10  0.08  0.08  0.08  0.08  0.08  0.07  0.07   4717   2393   2324
 1957 289   616   585   1.1     0  0.06    33    28     0   387    61     0    0.0 0.000     0     0 0.000 0.000 0.401  1.67  0.00  0.00     0     0 185.8  0.23 -0.11   0.0  1.89  0.10  0.53  0.10  0.09  0.08  0.08  0.09  0.08  0.07  0.07   4717   2393   2324
 1957 296   623   592   1.3     0  0.08    39    34     0   383    73     0    0.0 0.000     0     0 0.000 0.000 0.000  1.71  0.00  0.00     0     0 193.7  0.24 -0.10   0.0  1.89  0.10  0.52  0.10  0.09  0.08  0.08  0.08  0.08  0.07  0.07   4717   2393   2324
 1957 303   630   599   1.4     0  0.08    41    34     0   379    75     0    0.0 0.000     0     0 0.000 0.000 0.000  1.83  0.00  0.00     0     0 204.8  0.25 -0.10   0.0  1.89  0.10  0.52  0.10  0.08  0.08  0.08  0.08  0.08  0.07  0.07   4717   2393   2324
 1957 310   637   606   1.6     0  0.10    50    42     0   378    92     0    0.0 0.000     0     0 0.000 0.000 0.432  1.83  0.00  0.00     0     0 195.6  0.25 -0.09   0.0  1.89  0.09  0.52  0.11  0.09  0.08  0.08  0.08  0.08  0.07  0.07   4717   2393   2324
 1957 317   644   613   1.8     0  0.10    54    45     0   377    99     0    0.0 0.000     0     0 0.000 0.000 0.000  1.90  0.00  0.00     0     0 189.5  0.26 -0.08   0.0  1.89  0.09  0.51  0.10  0.09  0.08  0.08  0.08  0.08  0.07  0.07   4718   2394   2324
 1957 324   651   620   2.1     0  0.13    73    62     0   384   134     0    0.0 0.000     0     0 0.000 0.000 0.000  1.70  0.00  0.00     0     0 185.3  0.27 -0.07   0.0  1.89  0.10  0.53  0.10  0.09  0.09  0.09  0.09  0.08  0.07  0.07   4719   2394   2324
 1957 331   658   627   2.1     0  0.14    72    61     0   382   134     0    0.0 0.000     0     0 0.000 0.000 0.000  1.75  0.00  0.00     0     0 188.6  0.27 -0.07   0.0  1.89  0.10  0.52  0.10  0.09  0.09  0.09  0.09  0.08  0.07  0.07   4719   2394   2324
 1957 338   665   634   2.2     0  0.15    75    64     0   380   139     0    0.0 0.000     0     0 0.000 0.000 0.000  1.84  0.00  0.00     0     0 196.0  0.28 -0.06   0.0  1.89  0.10  0.52  0.10  0.09  0.09  0.09  0.09  0.08  0.07  0.07   4719   2395   2325
 1957 345   672   641   2.3     0  0.15    76    65     0   379   141     0    0.0 0.000     0     0 0.000 0.000 0.000  2.02  0.00  0.00     0     0 200.1  0.28 -0.06   0.0  1.89  0.10  0.52  0.10  0.09  0.09  0.09  0.09  0.08  0.07  0.07   4719   2395   2325
 1957 352   679   648   2.4     0  0.16    81    69     0   379   149     0    0.0 0.000     0     0 0.000 0.000 0.293  2.03  0.00  0.00     0     0 198.9  0.28 -0.06   0.0  1.89  0.10  0.52  0.10  0.09  0.09  0.09  0.09  0.08  0.07  0.07   4719   2395   2325
 1957 359   686   655   2.5     0  0.18    88    76     0   382   165     0    0.0 0.000     0     0 0.000 0.000 0.566  1.89  0.00  0.00     0     0 198.1  0.28 -0.05   0.0  1.89  0.10  0.52  0.10  0.09  0.09  0.09  0.09  0.08  0.07  0.07   4720   2395   2325
 1958 001   693   662   2.6     0  0.19    92    79     0   381   171     0    0.0 0.000     0     0 0.000 0.000 0.000  1.97  0.00  0.00     0     0 203.2  0.29 -0.05   0.0  1.89  0.10  0.52  0.10  0.09  0.09  0.09  0.09  0.08  0.07  0.07   4720   2395   2325
 1958 008   700   669   2.6     0  0.19    91    79     0   381   171     0    0.0 0.000     0     0 0.000 0.000 0.000  1.97  0.00  0.00     0     0 203.3  0.29 -0.05   0.0  1.89  0.10  0.52  0.10  0.09  0.09  0.09  0.09  0.08  0.07  0.07   4720   2395   2325
 1958 015   707   676   2.6     0  0.19    91    79     0   380   170     0    0.0 0.000     0     0 0.000 0.000 0.000  1.99  0.00  0.00     0     0 204.5  0.29 -0.05   0.0  1.89  0.10  0.52  0.10  0.09  0.09  0.09  0.09  0.08  0.07  0.07   4720   2395   2325
 1958 022   714   683   2.7     0  0.19    91    78     0   379   169     0    0.0 0.000     0     0 0.000 0.000 0.000  1.99  0.00  0.00     0     0 205.4  0.29 -0.05   0.0  1.89  0.10  0.52  0.09  0.09  0.09  0.09  0.09  0.08  0.07  0.07   4720   2395   2325
 1958 029   721   690   2.7     0  0.19    90    78     0   378   168     0    0.0 0.000     0     0 0.000 0.000 0.000  2.00  0.00  0.00     0     0 206.1  0.29 -0.05   0.0  1.89  0.10  0.52  0.09  0.09  0.09  0.09  0.09  0.08  0.07  0.07   4720   2395   2325
 1958 036   728   697   2.7     0  0.19    90    78     0   378   168     0    0.0 0.000     0     0 0.000 0.000 0.000  2.01  0.00  0.00     0     0 206.5  0.29 -0.05   0.0  1.89  0.10  0.52  0.09  0.09  0.09  0.09  0.09  0.08  0.07  0.07   4720   2395   2325
 1958 043   735   704   2.7     0  0.19    91    79     0   377   170     0    0.0 0.000     0     0 0.000 0.000 0.000  2.05  0.00  0.00     0     0 208.9  0.29 -0.05   0.0  1.89  0.10  0.52  0.09  0.09  0.09  0.09  0.09  0.08  0.07  0.07   4720   2395   2325
 1958 050   742   711   2.7     0  0.19    91    79     0   377   170     0    0.0 0.000     0     0 0.000 0.000 0.000  2.05  0.00  0.00     0     0 208.9  0.29 -0.05   0.0  1.89  0.10  0.52  0.09  0.09  0.09  0.09  0.09  0.08  0.07  0.07   4720   2395   2325
 1958 057   749   718   2.8     0  0.20    96    83     0   376   179     0    0.0 0.000     0     0 0.000 0.000 0.000  2.34  0.00  0.00     0     0 212.3  0.29 -0.04   0.0  1.89  0.10  0.52  0.10  0.09  0.09  0.09  0.09  0.08  0.07  0.07   4720   2395   2325
 1958 064   756   725   3.0     0  0.24   111    99     0   379   209     0    0.0 0.000     0     0 0.000 0.000 0.000  2.34  0.00  0.00     0     0 218.4  0.30 -0.04   0.0  1.89  0.10  0.52  0.10  0.09  0.09  0.09  0.09  0.08  0.07  0.07   4721   2396   2325
 1958 071   763   732   3.1     0  0.27   122   110     0   383   232     0    0.0 0.000     0     0 0.000 0.000 0.506  2.16  0.00  0.00     0     0 223.6  0.31 -0.03   0.0  1.89  0.11  0.53  0.10  0.09  0.09  0.09  0.09  0.08  0.07  0.07   4722   2397   2326
 1958 078   770   739   3.2     0  0.28   130   117     0   386   247     0    0.0 0.000     0     0 0.000 0.000 0.000  2.04  0.00  0.00     0     0 215.8  0.31 -0.03   0.0  1.89  0.11  0.53  0.10  0.09  0.09  0.09  0.09  0.08  0.07  0.07   4723   2397   2326
 1958 085   777   746   3.3     0  0.30   138   124     0   388   262     0    0.0 0.000     0     0 0.000 0.000 0.111  1.98  0.00  0.00     0     0 220.3  0.31 -0.03   0.0  1.89  0.11  0.54  0.10  0.09  0.09  0.09  0.09  0.08  0.07  0.07   4723   2397   2326
 1958 092   784   753   3.4     0  0.32   143   129     0   390   272     0    0.0 0.000     0     0 0.000 0.000 0.000  1.93  0.00  0.00     0     0 222.1  0.31 -0.02   0.0  1.89  0.12  0.54  0.10  0.10  0.09  0.09  0.09  0.09  0.07  0.07   4724   2398   2326
 1958 099   791   760   3.6     0  0.35   183   164     0   417   346     0    0.0 0.000     0     0 0.000 0.000 0.000  1.45  0.00  0.00     0     0 191.6  0.32 -0.01   0.0  1.89  0.11  0.58  0.11  0.10  0.10  0.10  0.10  0.09  0.08  0.08   4727   2399   2327
 1958 106   798   767   3.8     0  0.38   217   193     0   445   409     0    0.0 0.000     0     0 0.000 0.000 0.181  1.21  0.00  0.00     0     0 177.0  0.33 -0.01   0.0  1.89  0.13  0.62  0.11  0.10  0.10  0.10  0.10  0.10  0.08  0.09   4729   2401   2328
 1958 113   805   774   4.2     0  0.42   247   219     0   473   466     0    0.0 0.000     0     0 0.000 0.000 0.052  1.01  0.00  0.00     0     0 169.4  0.34  0.01   0.0  1.89  0.15  0.66  0.12  0.10  0.10  0.10  0.10  0.10  0.09  0.09   4731   2403   2329
 1958 120   812   781   4.6     0  0.46   268   238     0   506   506     0    0.0 0.000     0     0 0.000 0.000 0.325  0.88  0.00  0.00     0     0 172.3  0.36  0.03   0.0  1.89  0.17  0.69  0.15  0.10  0.10  0.10  0.10  0.10  0.10  0.10   4735   2405   2330
 1958 127   819   788   5.0     0  0.50   272   246     0   517   518     0    0.0 0.000     0     0 0.000 0.000 0.000  0.87  0.00  0.00     0     0 185.6  0.39  0.05   0.0  1.89  0.18  0.71  0.13  0.10  0.10  0.10  0.10  0.10  0.10  0.10   4737   2407   2331
 1958 134   826   795   5.3     0  0.53   268   246     0   515   515     0    0.0 0.000     0     0 0.000 0.000 0.181  0.91  0.00  0.00     0     0 198.3  0.40  0.06   0.0  1.89  0.18  0.71  0.12  0.10  0.10  0.10  0.10  0.10  0.10  0.10   4739   2408   2331
 1958 141   833   802   5.7     0  0.55   253   237     0   498   490     0    0.0 0.000     0     0 0.000 0.000 0.000  0.97  0.00  0.00     0     0 215.8  0.42  0.09   0.0  1.89  0.16  0.69  0.12  0.10  0.10  0.10  0.10  0.10  0.10  0.10   4741   2409   2332
 1958 148   840   809   6.2     0  0.55   240   227     0   477   467     0    0.0 0.000     0     0 0.000 0.000 0.000  1.04  0.00  0.00     0     0 230.3  0.45  0.10   0.0  1.89  0.14  0.66  0.12  0.09  0.09  0.09  0.09  0.09  0.09  0.09   4741   2409   2332
 1958 155   847   816   1.5     0  0.11    45    44     0   452    88     0    0.0 0.000     0     0 0.000 0.000 0.000  1.11  0.00  0.00     0     0 246.1  0.24 -0.14   0.0  1.89  0.12  0.62  0.11  0.09  0.09  0.09  0.09  0.09  0.09  0.09   5108   2597   2511
 1958 162   854   823   2.1     0  0.11    44    43     0   428    87     0    0.0 0.000     0     0 0.000 0.000 0.000  1.13  0.00  0.00     0     0 251.4  0.27 -0.11   0.0  1.89  0.11  0.59  0.11  0.08  0.08  0.08  0.08  0.08  0.08  0.08   5108   2597   2511
 1958 169   861   830   2.7     0  0.11    43    43     0   403    87     0    0.0 0.000     0     0 0.000 0.000 0.000  1.15  0.00  0.00     0     0 254.6  0.30 -0.08   0.0  1.89  0.10  0.56  0.09  0.08  0.08  0.08  0.08  0.08  0.08  0.08   5108   2597   2511
 1958 176   868   837   3.2     0  0.11    43    43     0   382    87     0    0.0 0.000     0     0 0.000 0.000 0.000  1.15  0.00  0.00     0     0 256.2  0.33 -0.05   0.0  1.89  0.10  0.53  0.09  0.07  0.07  0.07  0.07  0.07  0.07  0.07   5108   2597   2511
 1958 183   875   844   0.8     0  0.02     9     9     0   364    17     0    0.0 0.000     0     0 0.000 0.000 0.000  1.16  0.00  0.00     0     0 257.4  0.25 -0.13   0.0  1.89  0.09  0.50  0.08  0.07  0.07  0.07  0.07  0.07  0.07  0.07   5177   2632   2545
 1958 190   882   851   1.3     0  0.02     9     9     0   345    17     0    0.0 0.000     0     0 0.000 0.000 0.000  1.16  0.00  0.00     0     0 257.8  0.27 -0.11   0.0  1.89  0.09  0.47  0.08  0.07  0.07  0.07  0.07  0.07  0.07  0.07   5177   2632   2545
 1958 197   889   858   1.9     0  0.02     9     9     0   327    17     0    0.0 0.000     0     0 0.000 0.000 0.000  1.16  0.00  0.00     0     0 258.0  0.30 -0.08   0.0  1.89  0.08  0.45  0.08  0.06  0.06  0.06  0.06  0.06  0.06  0.06   5177   2632   2545
 1958 204   896   865   2.5     0  0.02     9     9     0   307    17     0    0.0 0.000     0     0 0.000 0.000 0.000  1.16  0.00  0.00     0     0 258.2  0.33 -0.05   0.0  1.89  0.08  0.42  0.07  0.06  0.06  0.06  0.06  0.06  0.06  0.06   5177   2632   2545
 1958 211   903   872   3.1     0  0.02     9     9     0   290    17     0    0.0 0.000     0     0 0.000 0.000 0.000  1.16  0.00  0.00     0     0 258.3  0.36 -0.02   0.0  1.89  0.07  0.40  0.07  0.06  0.06  0.06  0.06  0.06  0.06  0.06   5177   2632   2545
 1958 218   910   879   1.1     0  0.00     2     2     0   273     3     0    0.0 0.000     0     0 0.000 0.000 0.000  1.16  0.00  0.00     0     0 258.3  0.28 -0.10   0.0  1.89  0.07  0.38  0.06  0.05  0.05  0.05  0.05  0.05  0.05  0.05   5191   2638   2552
 1958 225   917   886   1.6     0  0.00     2     2     0   258     3     0    0.0 0.000     0     0 0.000 0.000 0.000  1.16  0.00  0.00     0     0 258.3  0.30 -0.07   0.0  1.89  0.06  0.36  0.06  0.05  0.05  0.05  0.05  0.05  0.05  0.05   5191   2638   2552
 1958 232   924   893   2.2     0  0.00     2     2     0   244     3     0    0.0 0.000     0     0 0.000 0.000 0.000  1.16  0.00  0.00     0     0 258.4  0.33 -0.04   0.0  1.89  0.06  0.34  0.06  0.05  0.05  0.05  0.05  0.05  0.05  0.05   5191   2638   2552
 1958 239   931   900   2.7     0  0.00     2     2     0   231     3     0    0.0 0.000     0     0 0.000 0.000 0.000  1.16  0.00  0.00     0     0 258.4  0.36 -0.01   0.0  1.89  0.06  0.32  0.05  0.04  0.04  0.04  0.04  0.04  0.04  0.04   5191   2638   2552
 1958 246   938   907   0.8     0  0.00     0     0     0   220     1     0    0.0 0.000     0     0 0.000 0.000 0.000  1.16  0.00  0.00     0     0 258.4  0.29 -0.09   0.0  1.89  0.05  0.30  0.05  0.04  0.04  0.04  0.04  0.04  0.04  0.04   5194   2640   2554
 1958 253   945   914   1.3     0  0.00     0     0     0   209     1     0    0.0 0.000     0     0 0.000 0.000 0.000  1.16  0.00  0.00     0     0 258.4  0.31 -0.06   0.0  1.89  0.05  0.29  0.05  0.04  0.04  0.04  0.04  0.04  0.04  0.04   5194   2640   2554
 1958 260   952   921   1.7     0  0.00     0     0     0   199     1     0    0.0 0.000     0     0 0.000 0.000 0.000  1.16  0.00  0.00     0     0 258.4  0.33 -0.04   0.0  1.89  0.05  0.27  0.05  0.04  0.04  0.04  0.04  0.04  0.04  0.04   5194   2640   2554
 1958 267   959   928   2.3     0  0.00     0     0     0   189     1     0    0.0 0.000     0     0 0.000 0.000 0.000  1.16  0.00  0.00     0     0 258.4  0.36 -0.01   0.0  1.89  0.05  0.26  0.04  0.04  0.04  0.04  0.04  0.04  0.04  0.04   5194   2640   2554
 1958 274   966   935   0.5     0  0.00     0     0     0   181     0     0    0.0 0.000     0     0 0.000 0.000 0.000  1.16  0.00  0.00     0     0 258.4  0.38  0.01   0.0  1.89  0.04  0.25  0.04  0.03  0.03  0.03  0.04  0.03  0.04  0.04   5194   2640   2554
 1958 281   973   942   0.8     0  0.00     0     0     0   175     0     0    0.0 0.000     0     0 0.000 0.000 0.000  1.16  0.00  0.00     0     0 258.4  0.30 -0.07   0.0  1.89  0.04  0.24  0.04  0.03  0.03  0.03  0.03  0.03  0.03  0.03   5194   2640   2554
 1958 288   980   949   1.1     0  0.00     0     0     0   170     0     0    0.0 0.000     0     0 0.000 0.000 0.000  1.16  0.00  0.00     0     0 258.4  0.32 -0.05   0.0  1.89  0.04  0.23  0.04  0.03  0.03  0.03  0.03  0.03  0.03  0.03   5194   2640   2554
 1958 295   987   956   1.5     0  0.00     0     0     0   165     0     0    0.0 0.000     0     0 0.000 0.000 0.000  1.16  0.00  0.00     0     0 258.4  0.33 -0.04   0.0  1.89  0.04  0.23  0.04  0.03  0.03  0.03  0.03  0.03  0.03  0.03   5194   2640   2554
 1958 302   994   963   1.7     0  0.00     0     0     0   161     0     0    0.0 0.000     0     0 0.000 0.000 0.000  1.16  0.00  0.00     0     0 258.4  0.33 -0.03   0.0  1.89  0.04  0.22  0.04  0.03  0.03  0.03  0.03  0.03  0.03  0.03   5194   2640   2554
 1958 309  1001   970   1.8     0  0.00     0     0     0   159     0     0    0.0 0.000     0     0 0.000 0.000 0.000  1.16  0.00  0.00     0     0 258.4  0.34 -0.03   0.0  1.89  0.04  0.22  0.04  0.03  0.03  0.03  0.03  0.03  0.03  0.03   5194   2640   2554
 1958 316  1008   977   2.0     0  0.00     0     0     0   156     0     0    0.0 0.000     0     0 0.000 0.000 0.000  1.16  0.00  0.00     0     0 258.4  0.34 -0.02   0.0  1.89  0.04  0.22  0.04  0.03  0.03  0.03  0.03  0.03  0.03  0.03   5194   2640   2554
 1958 323  1015   984   2.3     0  0.00     0     0     0   152     0     0    0.0 0.000     0     0 0.000 0.000 0.000  1.16  0.00  0.00     0     0 258.4  0.35 -0.01   0.0  1.89  0.04  0.21  0.04  0.03  0.03  0.03  0.03  0.03  0.03  0.03   5194   2640   2554
 1958 330  1022   991   2.4     0  0.00     0     0     0   149     0     0    0.0 0.000     0     0 0.000 0.000 0.000  1.16  0.00  0.00     0     0 258.4  0.36 -0.01   0.0  1.89  0.04  0.21  0.03  0.03  0.03  0.03  0.03  0.03  0.03  0.03   5194   2640   2554
 1958 337  1029   998   2.5     0  0.00     0     0     0   148     0     0    0.0 0.000     0     0 0.000 0.000 0.000  1.16  0.00  0.00     0     0 258.4  0.36  0.00   0.0  1.89  0.04  0.20  0.03  0.03  0.03  0.03  0.03  0.03  0.03  0.03   5194   2640   2554
 1958 344  1036  1005   2.6     0  0.00     0     0     0   147     0     0    0.0 0.000     0     0 0.000 0.000 0.000  1.16  0.00  0.00     0     0 258.4  0.37  0.00   0.0  1.89  0.04  0.20  0.03  0.03  0.03  0.03  0.03  0.03  0.03  0.03   5194   2640   2554
 1958 351  1043  1012   2.6     0  0.00     0     0     0   147     0     0    0.0 0.000     0     0 0.000 0.000 0.000  1.16  0.00  0.00     0     0 258.4  0.37  0.00   0.0  1.89  0.04  0.20  0.03  0.03  0.03  0.03  0.03  0.03  0.03  0.03   5194   2640   2554
 1958 358  1050  1019   2.7     0  0.00     0     0     0   146     0     0    0.0 0.000     0     0 0.000 0.000 0.000  1.16  0.00  0.00     0     0 258.4  0.37  0.00   0.0  1.89  0.04  0.20  0.03  0.03  0.03  0.03  0.03  0.03  0.03  0.03   5194   2640   2554
 1958 365  1057  1026   2.7     0  0.00     0     0     0   146     0     0    0.0 0.000     0     0 0.000 0.000 0.000  1.16  0.00  0.00     0     0 258.4  0.37  0.00   0.0  1.89  0.04  0.20  0.03  0.03  0.03  0.03  0.03  0.03  0.03  0.03   5194   2640   2554
 1959 007  1064  1033   2.7     0  0.00     0     0     0   145     0     0    0.0 0.000     0     0 0.000 0.000 0.000  1.16  0.00  0.00     0     0 258.4  0.37  0.01   0.0  1.89  0.04  0.20  0.03  0.03  0.03  0.03  0.03  0.03  0.03  0.03   5194   2640   2554
 1959 014  1071  1040   2.8     0  0.00     0     0     0   144     0     0    0.0 0.000     0     0 0.000 0.000 0.000  1.16  0.00  0.00     0     0 258.4  0.37  0.01   0.0  1.89  0.04  0.20  0.03  0.03  0.03  0.03  0.03  0.03  0.03  0.03   5194   2640   2554
 1959 021  1078  1047   2.9     0  0.00     0     0     0   143     0     0    0.0 0.000     0     0 0.000 0.000 0.000  1.16  0.00  0.00     0     0 258.4  0.37  0.01   0.0  1.89  0.04  0.20  0.03  0.03  0.03  0.03  0.03  0.03  0.03  0.03   5194   2640   2554
 1959 028  1085  1054   3.0     0  0.00     0     0     0   142     0     0    0.0 0.000     0     0 0.000 0.000 0.000  1.16  0.00  0.00     0     0 258.4  0.38  0.01   0.0  1.89  0.04  0.20  0.03  0.03  0.03  0.03  0.03  0.03  0.03  0.03   5194   2640   2554
 1959 035  1092  1061   3.0     0  0.00     0     0     0   141     0     0    0.0 0.000     0     0 0.000 0.000 0.000  1.16  0.00  0.00     0     0 258.4  0.38  0.02   0.0  1.89  0.04  0.19  0.03  0.03  0.03  0.03  0.03  0.03  0.03  0.03   5194   2640   2554
 1959 042  1099  1068   3.2     0  0.00     0     0     0   139     0     0    0.0 0.000     0     0 0.000 0.000 0.000  1.16  0.00  0.00     0     0 258.4  0.38  0.02   0.0  1.89  0.03  0.19  0.03  0.03  0.03  0.03  0.03  0.03  0.03  0.03   5194   2640   2554
 1959 049  1106  1075   3.3     0  0.00     0     0     0   137     0     0    0.0 0.000     0     0 0.000 0.000 0.000  1.16  0.00  0.00     0     0 258.4  0.39  0.03   0.0  1.89  0.03  0.19  0.03  0.03  0.03  0.03  0.03  0.03  0.03  0.03   5194   2640   2554
 1959 056  1113  1082   3.3     0  0.00     0     0     0   136     0     0    0.0 0.000     0     0 0.000 0.000 0.000  1.16  0.00  0.00     0     0 258.4  0.39  0.03   0.0  1.89  0.03  0.19  0.03  0.03  0.03  0.03  0.03  0.03  0.03  0.03   5194   2640   2554
 1959 063  1120  1089   3.4     0  0.00     0     0     0   135     0     0    0.0 0.000     0     0 0.000 0.000 0.000  1.16  0.00  0.00     0     0 258.4  0.39  0.03   0.0  1.89  0.03  0.19  0.03  0.03  0.03  0.03  0.03  0.03  0.03  0.03   5194   2640   2554
 1959 070  1127  1096   3.5     0  0.00     0     0     0   134     0     0    0.0 0.000     0     0 0.000 0.000 0.000  1.16  0.00  0.00     0     0 258.4  0.40  0.03   0.0  1.89  0.03  0.18  0.03  0.03  0.03  0.03  0.03  0.03  0.03  0.03   5194   2640   2554
 1959 077  1134  1103   3.6     0  0.00     0     0     0   133     0     0    0.0 0.000     0     0 0.000 0.000 0.000  1.16  0.00  0.00     0     0 258.4  0.40  0.04   0.0  1.89  0.03  0.18  0.03  0.03  0.03  0.03  0.03  0.03  0.03  0.03   5194   2640   2554
 1959 084  1141  1110   3.8     0  0.00     0     0     0   131     0     0    0.0 0.000     0     0 0.000 0.000 0.000  1.16  0.00  0.00     0     0 258.4  0.41  0.04   0.0  1.89  0.03  0.18  0.03  0.03  0.03  0.03  0.03  0.03  0.03  0.03   5194   2640   2554
 1959 091  1148  1117   3.9     0  0.00     0     0     0   128     0     0    0.0 0.000     0     0 0.000 0.000 0.000  1.16  0.00  0.00     0     0 258.4  0.41  0.05   0.0  1.89  0.03  0.18  0.03  0.02  0.02  0.02  0.02  0.02  0.02  0.02   5194   2640   2554
 1959 098  1155  1124   4.2     0  0.00     0     0     0   125     0     0    0.0 0.000     0     0 0.000 0.000 0.000  1.16  0.00  0.00     0     0 258.4  0.42  0.06   0.0  1.89  0.03  0.17  0.03  0.02  0.02  0.02  0.02  0.02  0.02  0.02   5194   2640   2554
 1959 105  1162  1131   4.5     0  0.00     0     0     0   121     0     0    0.0 0.000     0     0 0.000 0.000 0.000  1.16  0.00  0.00     0     0 258.4  0.44  0.08   0.0  1.89  0.03  0.17  0.03  0.02  0.02  0.02  0.02  0.02  0.02  0.02   5194   2640   2554
 1959 112  1169  1138   4.8     0  0.00     0     0     0   118     0     0    0.0 0.000     0     0 0.000 0.000 0.000  1.16  0.00  0.00     0     0 258.4  0.45  0.09   0.0  1.89  0.03  0.16  0.03  0.02  0.02  0.02  0.02  0.02  0.02  0.02   5194   2640   2554
 1959 119  1176  1145   5.1     0  0.00     0     0     0   115     0     0    0.0 0.000     0     0 0.000 0.000 0.000  1.16  0.00  0.00     0     0 258.4  0.46  0.10   0.0  1.89  0.03  0.16  0.03  0.02  0.02  0.02  0.02  0.02  0.02  0.02   5194   2640   2554
 1959 126  1183  1152   5.5     0  0.00     0     0     0   110     0     0    0.0 0.000     0     0 0.000 0.000 0.000  1.16  0.00  0.00     0     0 258.4  0.48  0.10   0.0  1.89  0.03  0.15  0.03  0.02  0.02  0.02  0.02  0.02  0.02  0.02   5194   2640   2554
 1959 133  1190  1159   5.9     0  0.00     0     0     0   105     0     0    0.0 0.000     0     0 0.000 0.000 0.000  1.16  0.00  0.00     0     0 258.4  0.50  0.10   0.0  1.89  0.03  0.14  0.02  0.02  0.02  0.02  0.02  0.02  0.02  0.02   5194   2640   2554
 1959 140  1197  1166   6.3     0  0.00     0     0     0   101     0     0    0.0 0.000     0     0 0.000 0.000 0.000  1.16  0.00  0.00     0     0 258.4  0.52  0.10   0.0  1.89  0.03  0.14  0.02  0.02  0.02  0.02  0.02  0.02  0.02  0.02   5194   2640   2554
 1959 147  1204  1173   6.8     0  0.00     0     0     0    96     0     0    0.0 0.000     0     0 0.000 0.000 0.000  1.16  0.00  0.00     0     0 258.4  0.55  0.10   0.0  1.89  0.02  0.13  0.02  0.02  0.02  0.02  0.02  0.02  0.02  0.02   5194   2640   2554
 1959 154  1211  1180   1.6     0  0.00     0     0     0    91     0     0    0.0 0.000     0     0 0.000 0.000 0.000  1.16  0.00  0.00     0     0 258.4  0.32 -0.18   0.0  1.89  0.02  0.13  0.02  0.02  0.02  0.02  0.02  0.02  0.02  0.02   5194   2640   2554
 1959 161  1218  1187   2.1     0  0.00     0     0     0    87     0     0    0.0 0.000     0     0 0.000 0.000 0.000  1.16  0.00  0.00     0     0 258.4  0.34 -0.16   0.0  1.89  0.02  0.12  0.02  0.02  0.02  0.02  0.02  0.02  0.02  0.02   5194   2640   2554
 1959 168  1225  1194   2.6     0  0.00     0     0     0    83     0     0    0.0 0.000     0     0 0.000 0.000 0.000  1.16  0.00  0.00     0     0 258.4  0.37 -0.13   0.0  1.89  0.02  0.11  0.02  0.02  0.02  0.02  0.02  0.02  0.02  0.02   5194   2640   2554
 1959 175  1232  1201   3.1     0  0.00     0     0     0    79     0     0    0.0 0.000     0     0 0.000 0.000 0.000  1.16  0.00  0.00     0     0 258.4  0.39 -0.10   0.0  1.89  0.02  0.11  0.02  0.02  0.02  0.02  0.02  0.02  0.02  0.02   5194   2640   2554
 1959 182  1239  1208   0.7     0  0.00     0     0     0    74     0     0    0.0 0.000     0     0 0.000 0.000 0.000  1.16  0.00  0.00     0     0 258.4  0.42 -0.07   0.0  1.89  0.02  0.10  0.02  0.01  0.01  0.01  0.01  0.01  0.01  0.01   5194   2640   2554
 1959 189  1246  1215   1.3     0  0.00     0     0     0    70     0     0    0.0 0.000     0     0 0.000 0.000 0.000  1.16  0.00  0.00     0     0 258.4  0.32 -0.18   0.0  1.89  0.02  0.10  0.02  0.01  0.01  0.01  0.01  0.01  0.01  0.01   5194   2640   2554
 1959 196  1253  1222   1.9     0  0.00     0     0     0    66     0     0    0.0 0.000     0     0 0.000 0.000 0.000  1.16  0.00  0.00     0     0 258.4  0.35 -0.15   0.0  1.89  0.02  0.09  0.02  0.01  0.01  0.01  0.01  0.01  0.01  0.01   5194   2640   2554
 1959 203  1260  1229   2.4     0  0.00     0     0     0    63     0     0    0.0 0.000     0     0 0.000 0.000 0.000  1.16  0.00  0.00     0     0 258.4  0.38 -0.12   0.0  1.89  0.02  0.09  0.01  0.01  0.01  0.01  0.01  0.01  0.01  0.01   5194   2640   2554
 1959 210  1267  1236   3.0     0  0.00     0     0     0    59     0     0    0.0 0.000     0     0 0.000 0.000 0.000  1.16  0.00  0.00     0     0 258.4  0.40 -0.09   0.0  1.89  0.01  0.08  0.01  0.01  0.01  0.01  0.01  0.01  0.01  0.01   5194   2640   2554
 1959 217  1274  1243   1.0     0  0.00     0     0     0    56     0     0    0.0 0.000     0     0 0.000 0.000 0.000  1.16  0.00  0.00     0     0 258.4  0.32 -0.17   0.0  1.89  0.01  0.08  0.01  0.01  0.01  0.01  0.01  0.01  0.01  0.01   5194   2640   2554
 1959 224  1281  1250   1.5     0  0.00     0     0     0    53     0     0    0.0 0.000     0     0 0.000 0.000 0.000  1.16  0.00  0.00     0     0 258.4  0.35 -0.15   0.0  1.89  0.01  0.07  0.01  0.01  0.01  0.01  0.01  0.01  0.01  0.01   5194   2640   2554
 1959 231  1288  1257   2.1     0  0.00     0     0     0    50     0     0    0.0 0.000     0     0 0.000 0.000 0.000  1.16  0.00  0.00     0     0 258.4  0.37 -0.12   0.0  1.89  0.01  0.07  0.01  0.01  0.01  0.01  0.01  0.01  0.01  0.01   5194   2640   2554
 1959 238  1295  1264   2.7     0  0.00     0     0     0    47     0     0    0.0 0.000     0     0 0.000 0.000 0.000  1.16  0.00  0.00     0     0 258.4  0.40 -0.09   0.0  1.89  0.01  0.06  0.01  0.01  0.01  0.01  0.01  0.01  0.01  0.01   5194   2640   2554
 1959 244  1301  1270   0.6     0  0.00     0     0     0    45     0     0    0.0 0.000     0     0 0.000 0.000 0.000  1.16  0.00  0.00     0     0 258.4  0.43 -0.06   0.0  1.89  0.01  0.06  0.01  0.01  0.01  0.01  0.01  0.01  0.01  0.01   5194   2640   2554
 1959 245  1302  1271   0.7     0  0.00     0     0     0    44     0     0    0.0 0.000     0     0 0.000 0.000 0.000  1.16  0.00  0.00     0     0 258.4  0.33 -0.17   0.0  1.89  0.01  0.06  0.01  0.01  0.01  0.01  0.01  0.01  0.01  0.01   5194   2640   2554
 1959 252  1309  1278   1.3     0  0.00     0     0     0    42     0     0    0.0 0.000     0     0 0.000 0.000 0.000  1.16  0.00  0.00     0     0 258.4  0.35 -0.14   0.0  1.89  0.01  0.06  0.01  0.01  0.01  0.01  0.01  0.01  0.01  0.01   5194   2640   2554
 1959 259  1316  1285   1.7     0  0.00     0     0     0    40     0     0    0.0 0.000     0     0 0.000 0.000 0.000  1.16  0.00  0.00     0     0 258.4  0.37 -0.12   0.0  1.89  0.01  0.06  0.01  0.01  0.01  0.01  0.01  0.01  0.01  0.01   5194   2640   2554
 1959 266  1323  1292   2.1     0  0.00     0     0     0    39     0     0    0.0 0.000     0     0 0.000 0.000 0.000  1.16  0.00  0.00     0     0 258.4  0.39 -0.10   0.0  1.89  0.01  0.05  0.01  0.01  0.01  0.01  0.01  0.01  0.01  0.01   5194   2640   2554
 1959 273  1330  1299   2.6     0  0.00     0     0     0    37     0     0    0.0 0.000     0     0 0.000 0.000 0.000  1.16  0.00  0.00     0     0 258.4  0.41 -0.08   0.0  1.89  0.01  0.05  0.01  0.01  0.01  0.01  0.01  0.01  0.01  0.01   5194   2640   2554
 1959 280  1337  1306   1.0     0  0.00     0     0     0    35     0     0    0.0 0.000     0     0 0.000 0.000 0.000  1.16  0.00  0.00     0     0 258.4  0.36 -0.13   0.0  1.89  0.01  0.05  0.01  0.01  0.01  0.01  0.01  0.01  0.01  0.01   5194   2640   2554
  
*RUN   2        :  DRYLAND - 168 KG N/HA   
 MODEL          : CRGRO020 - BAHIA     
 EXPERIMENT     : ALTH5601 G0     ALTH5601G0 BAHIA ON GREENVILLE FINE SANDY LOAM
 TREATMENT  2   :  DRYLAND - 168 KG N/HA   

@YEAR DOY   DAS   DAP  L#SD  GSTD  LAID  LWAD  SWAD  GWAD  RWAD  CWAD  G#AD   GWGD  HIAD  PWAD  P#AD  WSPD  WSGD  NSTD  LN%D  SH%D  HIPD  PWDD  PWTD  SLAD  CHTD  CWID  NWAD  RDPD  RL1D  RL2D  RL3D  RL4D  RL5D  RL6D  RL7D  RL8D  RL9D  RL10   CDAD   LDAD   SDAD
 1956 070    31     0   0.0     0  0.00     0     0     0     0     0     0    0.0 0.000     0     0 0.000 0.000 0.000  0.00  0.00  0.00     0     0  92.6  0.00  0.00   0.0  0.00  0.00  0.00  0.00  0.00  0.00  0.00  0.00  0.00  0.00  0.00      0      0      0
 1956 074    35     4   0.0     0  0.00     0     0     0     0     0     0    0.0 0.000     0     0 0.000 0.000 0.000  0.00  0.00  0.00     0     0  92.6  0.00  0.00   0.0  0.00  0.00  0.00  0.00  0.00  0.00  0.00  0.00  0.00  0.00  0.00      0      0      0
 1956 081    42    11   0.0     0  0.06    65    65     0    32   130     0    0.0 0.000     0     0 0.000 0.000 0.000  2.24  0.00  0.00     0     0  94.7  0.03  0.03   0.0  0.26  0.10  0.10  0.06  0.00  0.00  0.00  0.00  0.00  0.00  0.00      0      0      0
 1956 088    49    18   0.2     0  0.08    76    75     0    37   151     0    0.0 0.000     0     0 0.000 0.000 0.000  2.26  0.00  0.00     0     0 110.8  0.03  0.03   0.0  0.30  0.09  0.12  0.08  0.00  0.00  0.00  0.00  0.00  0.00  0.00      0      0      0
 1956 095    56    25   0.5     0  0.13    97    96     0    47   193     0    0.0 0.000     0     0 0.000 0.000 0.000  2.27  0.00  0.00     0     0 136.9  0.04  0.04   0.0  0.34  0.10  0.16  0.10  0.00  0.00  0.00  0.00  0.00  0.00  0.00      0      0      0
 1956 102    63    32   0.7     0  0.18   115   113     0    55   228     0    0.0 0.000     0     0 0.000 0.000 0.000  2.28  0.00  0.00     0     0 156.6  0.05  0.04   0.0  0.37  0.12  0.19  0.10  0.00  0.00  0.00  0.00  0.00  0.00  0.00      0      0      0
 1956 109    70    39   1.0     0  0.26   152   150     0    72   302     0    0.0 0.000     0     0 0.000 0.000 0.000  2.27  0.00  0.00     0     0 168.6  0.06  0.05   0.0  0.40  0.13  0.25  0.12  0.01  0.00  0.00  0.00  0.00  0.00  0.00      0      0      0
 1956 116    77    46   1.1     0  0.35   196   193     0    92   388     0    0.0 0.000     0     0 0.000 0.000 0.000  2.27  0.00  0.00     0     0 178.2  0.06  0.06   0.0  0.44  0.12  0.32  0.16  0.03  0.00  0.00  0.00  0.00  0.00  0.00      0      0      0
 1956 123    84    53   1.5     0  0.64   346   345     0   189   691     0    0.0 0.000     0     0 0.000 0.218 0.000  1.86  0.00  0.00     0     0 184.0  0.08  0.07   0.0  0.51  0.10  0.61  0.36  0.12  0.01  0.00  0.00  0.00  0.00  0.00      9      6      3
 1956 130    91    60   2.0     0  1.01   500   493     0   257   993     0    0.0 0.000     0     0 0.000 0.000 0.000  2.15  0.00  0.00     0     0 202.7  0.09  0.09   0.0  0.59  0.29  0.75  0.43  0.17  0.05  0.00  0.00  0.00  0.00  0.00     12      8      4
 1956 137    98    67   2.5     0  1.59   814   807     0   451  1621     0    0.0 0.000     0     0 0.000 0.000 0.000  1.64  0.00  0.00     0     0 195.1  0.11  0.10   0.0  0.67  0.30  1.23  0.75  0.33  0.21  0.01  0.00  0.00  0.00  0.00     33     22     11
 1956 144   105    74   2.7     0  1.68   913   898     0   741  1810     0    0.0 0.000     0     0 0.350 0.567 0.000  1.53  0.00  0.00     0     0 184.5  0.12  0.10   0.0  0.76  0.26  1.69  1.23  0.59  0.47  0.09  0.00  0.00  0.00  0.00     51     34     17
 1956 151   112    81   3.1     0  2.14  1139  1088     0   850  2226     0    0.0 0.000     0     0 0.000 0.000 0.000  1.48  0.00  0.00     0     0 188.3  0.14  0.10   0.0  0.88  0.43  1.84  1.36  0.67  0.55  0.17  0.00  0.00  0.00  0.00     67     45     22
 1956 158   119    88   1.0     0  0.71   373   346     0   880   718     0    0.0 0.000     0     0 0.000 0.000 0.000  1.71  0.00  0.00     0     0 189.4  0.06  0.01   0.0  0.95  0.41  1.89  1.39  0.68  0.57  0.20  0.00  0.00  0.00  0.00   1848    956    892
 1956 165   126    95   1.4     0  0.97   533   493     0   961  1026     0    0.0 0.000     0     0 0.130 0.420 0.258  1.52  0.00  0.00     0     0 181.2  0.07  0.03   0.0  1.04  0.40  1.94  1.47  0.73  0.62  0.28  0.02  0.00  0.00  0.00   1859    963    896
 1956 172   133   102   1.9     0  1.57   824   745     0  1059  1569     0    0.0 0.000     0     0 0.000 0.000 0.000  2.44  0.00  0.00     0     0 190.8  0.09  0.05   0.0  1.14  0.52  2.02  1.53  0.77  0.66  0.33  0.07  0.00  0.00  0.00   1862    965    897
 1956 179   140   109   2.5     0  2.51  1317  1214     0  1283  2532     0    0.0 0.000     0     0 0.000 0.061 0.000  1.74  0.00  0.00     0     0 190.6  0.12  0.08   0.0  1.26  0.69  2.29  1.72  0.87  0.78  0.46  0.21  0.01  0.00  0.00   1910    997    913
 1956 186   147   116   0.9     0  0.62   340   313     0  1450   653     0    0.0 0.000     0     0 0.000 0.017 0.000  1.52  0.00  0.00     0     0 183.4  0.06  0.01   0.0  1.37  0.60  2.28  1.88  0.96  0.87  0.57  0.33  0.03  0.00  0.00   4046   2109   1936
 1956 193   154   123   1.4     0  0.91   508   458     0  1466   966     0    0.0 0.000     0     0 0.000 0.000 0.000  2.65  0.00  0.00     0     0 178.7  0.08  0.04   0.0  1.47  0.59  2.20  1.82  0.95  0.86  0.58  0.35  0.06  0.00  0.00   4049   2112   1938
 1956 200   161   130   1.9     0  1.46   859   780     0  1663  1639     0    0.0 0.000     0     0 0.000 0.172 0.137  1.83  0.00  0.00     0     0 169.8  0.10  0.06   0.0  1.58  0.59  2.32  1.89  1.03  0.95  0.69  0.47  0.17  0.01  0.00   4079   2132   1948
 1956 207   168   137   2.2     0  1.63   994   897     0  1923  1891     0    0.0 0.000     0     0 0.000 0.000 0.000  1.57  0.00  0.00     0     0 163.8  0.11  0.07   0.0  1.71  0.53  2.27  1.92  1.16  1.08  0.83  0.63  0.33  0.08  0.00   4107   2150   1957
 1956 214   175   144   0.6     0  0.39   239   210     0  1991   450     0    0.0 0.000     0     0 0.000 0.000 0.000  1.35  0.00  0.00     0     0 163.8  0.03  0.00   0.0  1.80  0.51  2.06  1.79  1.17  1.11  0.88  0.69  0.39  0.14  0.01   5715   3000   2715
 1956 221   182   151   1.2     0  0.47   274   240     0  1894   514     0    0.0 0.000     0     0 0.000 0.067 0.000  1.54  0.00  0.00     0     0 169.7  0.06  0.02   0.0  1.89  0.46  1.83  1.61  1.09  1.06  0.84  0.66  0.38  0.14  0.02   5716   3000   2715
 1956 228   189   158   1.7     0  0.70   401   338     0  1858   739     0    0.0 0.000     0     0 0.000 0.000 0.000  2.96  0.00  0.00     0     0 173.6  0.08  0.04   0.0  1.89  0.41  1.74  1.49  1.02  1.01  0.82  0.65  0.38  0.15  0.03   5717   3002   2716
 1956 235   196   165   2.0     0  0.97   586   493     0  2045  1079     0    0.0 0.000     0     0 0.000 0.000 0.000  2.32  0.00  0.00     0     0 164.8  0.09  0.06   0.0  1.89  0.42  1.90  1.52  1.02  1.04  0.90  0.74  0.47  0.23  0.12   5739   3016   2723
 1956 242   203   172   2.4     0  1.27   782   654     0  2243  1436     0    0.0 0.000     0     0 0.098 0.399 0.111  1.82  0.00  0.00     0     0 162.1  0.10  0.07   0.0  1.89  0.45  2.02  1.52  1.02  1.06  0.99  0.85  0.57  0.31  0.21   5766   3034   2732
 1956 249   210   179   0.8     0  0.38   229   188     0  2209   417     0    0.0 0.000     0     0 0.000 0.055 0.000  1.59  0.00  0.00     0     0 166.1  0.04  0.01   0.0  1.89  0.45  1.87  1.41  0.95  1.01  0.97  0.85  0.58  0.33  0.23   6943   3676   3267
 1956 256   217   186   1.2     0  0.46   278   228     0  2174   506     0    0.0 0.000     0     0 0.000 0.225 0.000  1.49  0.00  0.00     0     0 164.2  0.05  0.02   0.0  1.89  0.40  1.71  1.30  0.89  0.95  0.94  0.85  0.59  0.34  0.24   6946   3678   3268
 1956 263   224   193   1.5     0  0.48   296   242     0  2116   538     0    0.0 0.000     0     0 0.000 0.000 0.000  1.61  0.00  0.00     0     0 161.2  0.06  0.03   0.0  1.89  0.36  1.56  1.18  0.82  0.89  0.89  0.83  0.59  0.34  0.25   6949   3680   3269
 1956 270   231   200   1.8     0  0.62   384   306     0  2124   690     0    0.0 0.000     0     0 0.000 0.000 0.000  2.57  0.00  0.00     0     0 160.8  0.07  0.04   0.0  1.89  0.34  1.61  1.10  0.77  0.84  0.86  0.83  0.61  0.36  0.27   6954   3683   3271
 1956 277   238   207   0.6     0  0.23   143   109     0  2082   252     0    0.0 0.000     0     0 0.000 0.000 0.000  5.42  0.00  0.00     0     0 163.8  0.03  0.00   0.0  1.89  0.31  1.56  0.97  0.66  0.77  0.81  0.79  0.59  0.35  0.26   7587   4039   3547
 1956 284   245   214   0.9     0  0.35   208   155     0  2033   363     0    0.0 0.000     0     0 0.000 0.000 0.000  8.17  0.00  0.00     0     0 166.1  0.05  0.02   0.0  1.89  0.29  1.51  0.80  0.51  0.63  0.78  0.76  0.57  0.34  0.26   7587   4039   3547
 1956 291   252   221   1.2     0  0.55   312   250     0  2030   562     0    0.0 0.000     0     0 0.000 0.000 0.000  6.32  0.00  0.00     0     0 174.8  0.06  0.03   0.0  1.89  0.26  1.53  0.82  0.49  0.64  0.78  0.75  0.57  0.34  0.26   7594   4044   3550
 1956 298   259   228   1.5     0  0.87   452   386     0  2039   838     0    0.0 0.000     0     0 0.000 0.000 0.000  4.71  0.00  0.00     0     0 192.6  0.07  0.04   0.0  1.89  0.29  1.57  0.74  0.43  0.55  0.75  0.75  0.58  0.35  0.28   7611   4056   3556
 1956 305   266   235   1.8     0  1.22   618   554     0  2082  1171     0    0.0 0.000     0     0 0.000 0.000 0.007  3.54  0.00  0.00     0     0 197.1  0.07  0.05   0.0  1.89  0.26  1.64  0.79  0.42  0.55  0.76  0.77  0.60  0.37  0.29   7634   4071   3563
 1956 312   273   242   2.0     0  1.57   819   749     0  2208  1569     0    0.0 0.000     0     0 0.000 0.000 0.136  2.64  0.00  0.00     0     0 191.5  0.08  0.06   0.0  1.89  0.31  1.79  0.90  0.48  0.61  0.81  0.82  0.65  0.41  0.33   7658   4087   3571
 1956 319   280   249   2.1     0  1.74   891   821     0  2226  1712     0    0.0 0.000     0     0 0.000 0.000 0.000  2.50  0.00  0.00     0     0 194.8  0.09  0.06   0.0  1.89  0.34  1.82  0.89  0.46  0.62  0.82  0.82  0.65  0.41  0.34   7666   4092   3574
 1956 326   287   256   2.3     0  1.90   974   902     0  2261  1876     0    0.0 0.000     0     0 0.000 0.000 0.194  2.35  0.00  0.00     0     0 195.4  0.09  0.07   0.0  1.89  0.38  1.86  0.89  0.45  0.64  0.84  0.84  0.67  0.42  0.35   7675   4098   3577
 1956 333   294   263   2.3     0  1.90   972   899     0  2254  1871     0    0.0 0.000     0     0 0.000 0.000 0.000  2.35  0.00  0.00     0     0 195.9  0.09  0.07   0.0  1.89  0.38  1.86  0.89  0.45  0.63  0.83  0.84  0.66  0.42  0.35   7675   4098   3577
 1956 340   301   270   2.4     0  1.98  1006   934     0  2264  1940     0    0.0 0.000     0     0 0.000 0.000 0.129  2.31  0.00  0.00     0     0 197.2  0.09  0.07   0.0  1.89  0.35  1.87  0.90  0.45  0.64  0.84  0.84  0.67  0.43  0.36   7679   4101   3578
 1956 347   308   277   2.5     0  2.17  1140  1063     0  2376  2202     0    0.0 0.000     0     0 0.000 0.000 0.000  2.03  0.00  0.00     0     0 190.8  0.10  0.08   0.0  1.89  0.33  1.98  0.99  0.51  0.69  0.88  0.88  0.71  0.46  0.39   7693   4111   3583
 1956 354   315   284   2.8     0  2.63  1277  1207     0  2422  2484     0    0.0 0.000     0     0 0.000 0.000 0.396  1.85  0.00  0.00     0     0 206.3  0.11  0.09   0.0  1.89  0.44  2.05  0.97  0.50  0.71  0.90  0.90  0.73  0.47  0.41   7714   4124   3590
 1956 361   322   291   3.0     0  2.81  1329  1262     0  2437  2591     0    0.0 0.000     0     0 0.000 0.000 0.000  1.84  0.00  0.00     0     0 211.7  0.13  0.10   0.0  1.89  0.50  2.07  0.82  0.43  0.60  0.81  0.85  0.73  0.48  0.41   7722   4130   3592
 1957 002   329   298   3.1     0  2.89  1352  1287     0  2434  2639     0    0.0 0.000     0     0 0.000 0.000 0.000  1.82  0.00  0.00     0     0 213.5  0.13  0.10   0.0  1.89  0.52  2.07  0.78  0.37  0.54  0.76  0.83  0.73  0.48  0.41   7725   4132   3593
 1957 009   336   305   3.1     0  2.89  1348  1282     0  2421  2630     0    0.0 0.000     0     0 0.000 0.000 0.000  1.85  0.00  0.00     0     0 214.5  0.13  0.10   0.0  1.89  0.51  2.06  0.69  0.30  0.45  0.65  0.71  0.66  0.48  0.41   7725   4132   3593
 1957 016   343   312   3.2     0  2.99  1374  1311     0  2417  2685     0    0.0 0.000     0     0 0.000 0.000 0.000  1.84  0.00  0.00     0     0 217.8  0.13  0.10   0.0  1.89  0.53  2.06  0.69  0.26  0.40  0.62  0.70  0.66  0.48  0.41   7729   4134   3595
 1957 023   350   319   3.3     0  3.07  1397  1334     0  2417  2732     0    0.0 0.000     0     0 0.000 0.000 0.000  1.84  0.00  0.00     0     0 219.6  0.14  0.10   0.0  1.89  0.55  2.07  0.68  0.25  0.40  0.63  0.70  0.66  0.48  0.41   7730   4135   3595
 1957 030   357   326   3.4     0  3.29  1463  1404     0  2416  2867     0    0.0 0.000     0     0 0.000 0.000 0.000  1.79  0.00  0.00     0     0 225.0  0.15  0.10   0.0  1.89  0.60  2.09  0.54  0.20  0.30  0.48  0.57  0.56  0.44  0.42   7740   4142   3599
 1957 037   364   333   3.8     0  3.64  1626  1570     0  2520  3196     0    0.0 0.000     0     0 0.000 0.000 0.000  1.58  0.00  0.00     0     0 224.1  0.17  0.10   0.0  1.89  0.84  2.26  0.51  0.19  0.27  0.42  0.50  0.50  0.39  0.39   7765   4158   3607
 1957 044   371   340   4.0     0  3.90  1739  1689     0  2594  3429     0    0.0 0.000     0     0 0.000 0.000 0.000  1.47  0.00  0.00     0     0 224.4  0.18  0.10   0.0  1.89  0.98  2.36  0.59  0.19  0.27  0.42  0.52  0.52  0.37  0.39   7783   4170   3613
 1957 051   378   347   4.1     0  3.97  1759  1710     0  2588  3469     0    0.0 0.000     0     0 0.000 0.000 0.000  1.47  0.00  0.00     0     0 225.7  0.19  0.10   0.0  1.89  0.99  2.35  0.60  0.19  0.26  0.42  0.52  0.52  0.37  0.39   7785   4172   3614
 1957 058   385   354   4.3     0  4.09  1776  1730     0  2565  3506     0    0.0 0.000     0     0 0.000 0.000 0.000  1.47  0.00  0.00     0     0 230.0  0.20  0.10   0.0  1.89  1.00  2.34  0.54  0.17  0.24  0.38  0.49  0.52  0.37  0.39   7790   4175   3615
 1957 065   392   361   4.4     0  4.10  1775  1728     0  2548  3503     0    0.0 0.000     0     0 0.000 0.000 0.000  1.51  0.00  0.00     0     0 231.3  0.20  0.10   0.0  1.89  1.00  2.32  0.42  0.13  0.18  0.30  0.39  0.43  0.32  0.35   7790   4175   3615
 1957 072   399   368   4.5     0  4.16  1791  1745     0  2541  3536     0    0.0 0.000     0     0 0.000 0.000 0.000  1.51  0.00  0.00     0     0 232.5  0.20  0.10   0.0  1.89  1.00  2.32  0.37  0.11  0.15  0.25  0.35  0.37  0.28  0.31   7792   4176   3616
 1957 079   406   375   4.7     0  4.45  1912  1866     0  2557  3779     0    0.0 0.000     0     0 0.000 0.000 0.000  1.67  0.00  0.00     0     0 232.4  0.21  0.10   0.0  1.89  1.06  2.34  0.40  0.11  0.14  0.25  0.36  0.38  0.29  0.32   7802   4183   3619
 1957 086   413   382   4.8     0  4.62  1989  1936     0  2561  3924     0    0.0 0.000     0     0 0.000 0.000 0.000  1.90  0.00  0.00     0     0 232.4  0.22  0.10   0.0  1.89  1.08  2.34  0.34  0.10  0.12  0.20  0.30  0.32  0.26  0.28   7802   4183   3619
 1957 093   420   389   5.0     0  4.94  2124  2077     0  2600  4201     0    0.0 0.000     0     0 0.000 0.000 0.000  1.87  0.00  0.00     0     0 232.7  0.23  0.10   0.0  1.89  1.17  2.41  0.35  0.11  0.11  0.18  0.27  0.29  0.22  0.24   7817   4193   3624
 1957 100   427   396   5.2     0  5.49  2336  2305     0  2662  4641     0    0.0 0.000     0     0 0.000 0.000 0.000  1.76  0.00  0.00     0     0 234.9  0.24  0.10   0.0  1.89  1.35  2.53  0.37  0.12  0.12  0.18  0.24  0.25  0.19  0.21   7859   4221   3638
 1957 107   434   403   5.4     0  5.72  2444  2418     0  2688  4862     0    0.0 0.000     0     0 0.000 0.000 0.000  1.72  0.00  0.00     0     0 234.1  0.25  0.10   0.0  1.89  1.41  2.57  0.40  0.12  0.12  0.17  0.24  0.25  0.19  0.20   7875   4231   3643
 1957 114   441   410   5.8     0  6.26  2687  2700     0  2757  5387     0    0.0 0.000     0     0 0.000 0.000 0.000  1.56  0.00  0.00     0     0 232.8  0.28  0.10   0.0  1.89  1.58  2.69  0.50  0.15  0.14  0.19  0.26  0.26  0.19  0.21   7982   4303   3679
 1957 121   448   417   6.2     0  6.74  2925  2969     0  2807  5894     0    0.0 0.000     0     0 0.000 0.000 0.000  1.42  0.00  0.00     0     0 230.3  0.30  0.10   0.0  1.89  1.71  2.76  0.60  0.19  0.18  0.23  0.30  0.30  0.21  0.24   8072   4363   3709
 1957 128   455   424   6.5     0  6.77  2936  3025     0  2787  5962     0    0.0 0.000     0     0 0.000 0.000 0.000  1.41  0.00  0.00     0     0 230.5  0.33  0.10   0.0  1.89  1.74  2.75  0.56  0.17  0.17  0.22  0.28  0.27  0.19  0.21   8209   4454   3755
 1957 135   462   431   6.9     0  6.73  2925  3087     0  2756  6011     0    0.0 0.000     0     0 0.000 0.000 0.000  1.38  0.00  0.00     0     0 230.2  0.36  0.10   0.0  1.89  1.78  2.74  0.54  0.15  0.15  0.19  0.24  0.23  0.16  0.18   8425   4598   3827
 1957 142   469   438   7.4     0  6.87  2979  3186     0  2708  6166     0    0.0 0.000     0     0 0.000 0.000 0.000  1.35  0.00  0.00     0     0 230.5  0.40  0.10   0.0  1.89  1.81  2.72  0.53  0.14  0.13  0.17  0.22  0.21  0.14  0.16   8552   4683   3869
 1957 149   476   445   7.9     0  6.83  2970  3233     0  2633  6203     0    0.0 0.000     0     0 0.000 0.000 0.000  1.33  0.00  0.00     0     0 230.1  0.44  0.10   0.0  1.89  1.75  2.64  0.54  0.15  0.14  0.18  0.23  0.22  0.14  0.16   8716   4793   3924
 1957 156   483   452   1.9     0  1.43   625   689     0  2549  1314     0    0.0 0.000     0     0 0.000 0.000 0.000  1.35  0.00  0.00     0     0 229.0  0.20 -0.17   0.0  1.89  1.66  2.56  0.55  0.16  0.15  0.19  0.23  0.22  0.15  0.16  13756   7211   6544
 1957 163   490   459   2.4     0  1.85   867   920     0  2558  1787     0    0.0 0.000     0     0 0.000 0.000 0.000  2.24  0.00  0.00     0     0 213.7  0.23 -0.14   0.0  1.89  1.55  2.55  0.60  0.20  0.19  0.22  0.27  0.25  0.17  0.19  13765   7217   6547
 1957 170   497   466   3.0     0  2.71  1263  1329     0  2656  2592     0    0.0 0.000     0     0 0.000 0.000 0.068  1.82  0.00  0.00     0     0 214.6  0.26 -0.11   0.0  1.89  1.59  2.67  0.74  0.27  0.27  0.30  0.34  0.31  0.22  0.24  13803   7243   6560
 1957 177   504   473   3.5     0  3.35  1527  1602     0  2695  3129     0    0.0 0.000     0     0 0.000 0.000 0.000  1.58  0.00  0.00     0     0 219.2  0.29 -0.08   0.0  1.89  1.52  2.70  0.83  0.33  0.32  0.36  0.40  0.36  0.26  0.27  13839   7267   6572
 1957 184   511   480   1.0     0  0.83   379   394     0  2663   774     0    0.0 0.000     0     0 0.000 0.000 0.000  1.66  0.00  0.00     0     0 220.0  0.19 -0.20   0.0  1.89  1.58  2.68  0.72  0.28  0.27  0.32  0.35  0.35  0.27  0.29  16597   8617   7980
 1957 191   518   487   1.5     0  1.17   613   621     0  2716  1235     0    0.0 0.000     0     0 0.000 0.000 0.131  1.59  0.00  0.00     0     0 191.0  0.21 -0.18   0.0  1.89  1.42  2.77  0.79  0.28  0.27  0.32  0.36  0.35  0.28  0.33  16612   8627   7985
 1957 198   525   494   2.0     0  1.45   771   782     0  2763  1554     0    0.0 0.000     0     0 0.000 0.000 0.000  1.27  0.00  0.00     0     0 187.7  0.23 -0.15   0.0  1.89  1.25  2.84  0.89  0.33  0.32  0.38  0.42  0.40  0.32  0.36  16630   8639   7991
 1957 205   532   501   2.6     0  1.82   930   942     0  2733  1871     0    0.0 0.000     0     0 0.000 0.000 0.000  1.73  0.00  0.00     0     0 195.3  0.26 -0.12   0.0  1.89  1.17  2.79  0.92  0.36  0.35  0.40  0.44  0.42  0.33  0.37  16643   8648   7995
 1957 212   539   508   3.1     0  2.47  1259  1279     0  2823  2538     0    0.0 0.000     0     0 0.000 0.000 0.111  1.52  0.00  0.00     0     0 196.2  0.29 -0.09   0.0  1.89  1.16  2.89  1.04  0.43  0.42  0.47  0.50  0.47  0.37  0.41  16671   8666   8004
 1957 219   546   515   1.1     0  0.63   318   322     0  2714   640     0    0.0 0.000     0     0 0.000 0.000 0.000  1.42  0.00  0.00     0     0 198.0  0.21 -0.17   0.0  1.89  1.04  2.73  1.02  0.42  0.42  0.46  0.49  0.47  0.37  0.40  18701   9673   9028
 1957 226   553   522   1.7     0  0.76   385   390     0  2606   775     0    0.0 0.000     0     0 0.000 0.000 0.000  1.36  0.00  0.00     0     0 198.1  0.24 -0.14   0.0  1.89  0.92  2.54  0.99  0.42  0.41  0.45  0.48  0.45  0.36  0.39  18708   9678   9030
 1957 233   560   529   2.2     0  0.90   446   450     0  2496   896     0    0.0 0.000     0     0 0.000 0.000 0.000  1.59  0.00  0.00     0     0 200.9  0.27 -0.11   0.0  1.89  0.87  2.38  0.96  0.41  0.40  0.44  0.47  0.44  0.35  0.38  18710   9679   9031
 1957 240   567   536   2.7     0  1.07   564   568     0  2498  1132     0    0.0 0.000     0     0 0.000 0.272 0.108  1.32  0.00  0.00     0     0 190.0  0.28 -0.09   0.0  1.89  0.77  2.27  1.01  0.44  0.43  0.47  0.50  0.46  0.36  0.39  18721   9687   9034
 1957 247   574   543   0.8     0  0.22   118   119     0  2414   236     0    0.0 0.000     0     0 0.000 0.000 0.000  1.25  0.00  0.00     0     0 189.9  0.21 -0.17   0.0  1.89  0.68  2.06  0.99  0.43  0.43  0.47  0.49  0.46  0.36  0.38  19656  10154   9502
 1957 254   581   550   1.3     0  0.22   117   119     0  2304   235     0    0.0 0.000     0     0 0.000 0.000 0.000  1.26  0.00  0.00     0     0 191.5  0.23 -0.14   0.0  1.89  0.62  1.88  0.94  0.41  0.41  0.44  0.47  0.43  0.34  0.37  19656  10154   9502
 1957 261   588   557   1.8     0  0.22   116   119     0  2187   235     0    0.0 0.000     0     0 0.000 0.000 0.000  1.27  0.00  0.00     0     0 192.6  0.26 -0.12   0.0  1.89  0.58  1.79  0.84  0.37  0.37  0.42  0.44  0.41  0.32  0.35  19656  10154   9502
 1957 268   595   564   2.3     0  0.22   116   119     0  2083   234     0    0.0 0.000     0     0 0.000 0.000 0.000  1.27  0.00  0.00     0     0 193.2  0.28 -0.09   0.0  1.89  0.54  1.70  0.61  0.26  0.26  0.35  0.42  0.39  0.31  0.33  19656  10154   9502
 1957 275   602   571   0.5     0  0.04    23    24     0  2029    47     0    0.0 0.000     0     0 0.000 0.000 0.000  1.28  0.00  0.00     0     0 193.5  0.25 -0.13   0.0  1.89  0.52  1.66  0.48  0.19  0.19  0.26  0.33  0.33  0.26  0.31  19843  10246   9597
 1957 282   609   578   0.8     0  0.04    23    24     0  1978    47     0    0.0 0.000     0     0 0.000 0.000 0.000  1.28  0.00  0.00     0     0 193.6  0.25 -0.12   0.0  1.89  0.49  1.61  0.38  0.14  0.14  0.20  0.25  0.25  0.19  0.25  19843  10246   9597
 1957 289   616   585   1.1     0  0.04    23    24     0  1929    47     0    0.0 0.000     0     0 0.000 0.000 0.000  1.28  0.00  0.00     0     0 193.7  0.26 -0.11   0.0  1.89  0.45  1.57  0.34  0.11  0.10  0.15  0.19  0.19  0.15  0.19  19843  10246   9597
 1957 296   623   592   1.3     0  0.04    23    24     0  1886    47     0    0.0 0.000     0     0 0.000 0.000 0.000  1.28  0.00  0.00     0     0 193.8  0.27 -0.10   0.0  1.89  0.42  1.54  0.33  0.10  0.10  0.12  0.15  0.15  0.11  0.15  19843  10246   9597
 1957 303   630   599   1.4     0  0.04    23    24     0  1858    47     0    0.0 0.000     0     0 0.000 0.000 0.000  1.28  0.00  0.00     0     0 193.8  0.27 -0.10   0.0  1.89  0.39  1.52  0.33  0.10  0.09  0.10  0.12  0.12  0.10  0.12  19843  10246   9597
 1957 310   637   606   1.6     0  0.04    23    24     0  1824    47     0    0.0 0.000     0     0 0.000 0.000 0.000  1.28  0.00  0.00     0     0 193.9  0.28 -0.09   0.0  1.89  0.36  1.49  0.32  0.10  0.09  0.10  0.10  0.10  0.10  0.10  19843  10246   9597
 1957 317   644   613   1.8     0  0.04    23    24     0  1801    47     0    0.0 0.000     0     0 0.000 0.000 0.000  1.28  0.00  0.00     0     0 193.9  0.28 -0.09   0.0  1.89  0.34  1.47  0.27  0.09  0.09  0.09  0.10  0.10  0.09  0.10  19843  10246   9597
 1957 324   651   620   2.1     0  0.04    23    24     0  1747    47     0    0.0 0.000     0     0 0.000 0.000 0.000  1.28  0.00  0.00     0     0 193.9  0.30 -0.07   0.0  1.89  0.32  1.42  0.20  0.09  0.09  0.09  0.09  0.09  0.09  0.09  19843  10246   9597
 1957 331   658   627   2.1     0  0.04    23    24     0  1737    47     0    0.0 0.000     0     0 0.000 0.000 0.000  1.28  0.00  0.00     0     0 193.9  0.30 -0.07   0.0  1.89  0.32  1.42  0.15  0.09  0.09  0.09  0.09  0.09  0.09  0.09  19843  10246   9597
 1957 338   665   634   2.2     0  0.04    23    24     0  1717    47     0    0.0 0.000     0     0 0.000 0.000 0.000  1.28  0.00  0.00     0     0 194.0  0.30 -0.06   0.0  1.89  0.31  1.40  0.11  0.09  0.09  0.09  0.09  0.09  0.09  0.09  19843  10246   9597
 1957 345   672   641   2.3     0  0.04    23    24     0  1705    47     0    0.0 0.000     0     0 0.000 0.000 0.000  1.28  0.00  0.00     0     0 194.0  0.31 -0.06   0.0  1.89  0.31  1.39  0.10  0.09  0.09  0.09  0.09  0.09  0.09  0.09  19843  10246   9597
 1957 352   679   648   2.4     0  0.04    23    24     0  1693    47     0    0.0 0.000     0     0 0.000 0.000 0.000  1.28  0.00  0.00     0     0 194.0  0.31 -0.06   0.0  1.89  0.30  1.38  0.10  0.09  0.09  0.09  0.09  0.09  0.09  0.09  19843  10246   9597
 1957 359   686   655   2.5     0  0.04    23    24     0  1669    47     0    0.0 0.000     0     0 0.000 0.000 0.000  1.28  0.00  0.00     0     0 194.0  0.31 -0.06   0.0  1.89  0.29  1.36  0.10  0.09  0.08  0.09  0.09  0.09  0.09  0.09  19843  10246   9597
 1958 001   693   662   2.6     0  0.04    23    24     0  1655    47     0    0.0 0.000     0     0 0.000 0.000 0.000  1.28  0.00  0.00     0     0 194.0  0.32 -0.05   0.0  1.89  0.28  1.35  0.10  0.09  0.08  0.09  0.09  0.09  0.09  0.09  19843  10246   9597
 1958 008   700   669   2.6     0  0.04    23    24     0  1655    47     0    0.0 0.000     0     0 0.000 0.000 0.000  1.28  0.00  0.00     0     0 194.0  0.32 -0.05   0.0  1.89  0.28  1.35  0.10  0.09  0.08  0.09  0.09  0.09  0.09  0.09  19843  10246   9597
 1958 015   707   676   2.6     0  0.04    23    24     0  1649    47     0    0.0 0.000     0     0 0.000 0.000 0.000  1.28  0.00  0.00     0     0 194.0  0.32 -0.05   0.0  1.89  0.27  1.34  0.10  0.09  0.08  0.09  0.09  0.09  0.09  0.09  19843  10246   9597
 1958 022   714   683   2.7     0  0.04    23    24     0  1646    47     0    0.0 0.000     0     0 0.000 0.000 0.000  1.28  0.00  0.00     0     0 194.0  0.32 -0.05   0.0  1.89  0.25  1.34  0.10  0.09  0.08  0.09  0.09  0.09  0.09  0.09  19843  10246   9597
 1958 029   721   690   2.7     0  0.04    23    24     0  1642    47     0    0.0 0.000     0     0 0.000 0.000 0.000  1.28  0.00  0.00     0     0 194.0  0.32 -0.05   0.0  1.89  0.25  1.34  0.10  0.09  0.08  0.09  0.09  0.09  0.09  0.09  19843  10246   9597
 1958 036   728   697   2.7     0  0.04    23    24     0  1641    47     0    0.0 0.000     0     0 0.000 0.000 0.000  1.28  0.00  0.00     0     0 194.0  0.32 -0.05   0.0  1.89  0.25  1.34  0.10  0.09  0.08  0.09  0.09  0.09  0.09  0.09  19843  10246   9597
 1958 043   735   704   2.7     0  0.04    23    24     0  1635    47     0    0.0 0.000     0     0 0.000 0.000 0.000  1.28  0.00  0.00     0     0 194.0  0.32 -0.05   0.0  1.89  0.25  1.33  0.10  0.09  0.08  0.09  0.09  0.09  0.09  0.09  19843  10246   9597
 1958 050   742   711   2.7     0  0.04    23    24     0  1635    47     0    0.0 0.000     0     0 0.000 0.000 0.000  1.28  0.00  0.00     0     0 194.0  0.32 -0.05   0.0  1.89  0.25  1.33  0.10  0.09  0.08  0.09  0.09  0.09  0.09  0.09  19843  10246   9597
 1958 057   749   718   2.8     0  0.04    23    24     0  1621    47     0    0.0 0.000     0     0 0.000 0.000 0.000  1.28  0.00  0.00     0     0 194.0  0.32 -0.04   0.0  1.89  0.23  1.32  0.09  0.08  0.08  0.08  0.09  0.09  0.08  0.09  19843  10246   9597
 1958 064   756   725   2.9     0  0.04    23    24     0  1598    47     0    0.0 0.000     0     0 0.000 0.000 0.000  1.28  0.00  0.00     0     0 194.0  0.33 -0.04   0.0  1.89  0.22  1.30  0.09  0.08  0.08  0.08  0.08  0.08  0.08  0.08  19843  10246   9597
 1958 071   763   732   3.1     0  0.04    23    24     0  1575    47     0    0.0 0.000     0     0 0.000 0.000 0.000  1.28  0.00  0.00     0     0 194.0  0.33 -0.03   0.0  1.89  0.21  1.28  0.09  0.08  0.08  0.08  0.08  0.08  0.08  0.08  19843  10246   9597
 1958 078   770   739   3.2     0  0.04    23    24     0  1561    47     0    0.0 0.000     0     0 0.000 0.000 0.000  1.28  0.00  0.00     0     0 194.0  0.34 -0.03   0.0  1.89  0.21  1.27  0.09  0.08  0.08  0.08  0.08  0.08  0.08  0.08  19843  10246   9597
 1958 085   777   746   3.3     0  0.04    23    24     0  1546    47     0    0.0 0.000     0     0 0.000 0.000 0.000  1.28  0.00  0.00     0     0 194.0  0.34 -0.03   0.0  1.89  0.20  1.26  0.09  0.08  0.08  0.08  0.08  0.08  0.08  0.08  19843  10246   9597
 1958 092   784   753   3.4     0  0.04    23    24     0  1529    47     0    0.0 0.000     0     0 0.000 0.000 0.000  1.28  0.00  0.00     0     0 194.0  0.34 -0.02   0.0  1.89  0.19  1.25  0.09  0.08  0.08  0.08  0.08  0.08  0.08  0.08  19843  10246   9597
 1958 099   791   760   3.6     0  0.04    23    24     0  1493    47     0    0.0 0.000     0     0 0.000 0.000 0.000  1.28  0.00  0.00     0     0 194.0  0.35 -0.01   0.0  1.89  0.18  1.22  0.09  0.08  0.08  0.08  0.08  0.08  0.08  0.08  19843  10246   9597
 1958 106   798   767   3.8     0  0.04    23    24     0  1461    47     0    0.0 0.000     0     0 0.000 0.000 0.000  1.28  0.00  0.00     0     0 194.0  0.36 -0.01   0.0  1.89  0.17  1.19  0.09  0.08  0.07  0.08  0.08  0.08  0.08  0.08  19843  10246   9597
 1958 113   805   774   4.2     0  0.04    23    24     0  1416    47     0    0.0 0.000     0     0 0.000 0.000 0.000  1.28  0.00  0.00     0     0 194.1  0.37  0.01   0.0  1.89  0.16  1.15  0.08  0.07  0.07  0.07  0.08  0.07  0.07  0.08  19843  10246   9597
 1958 120   812   781   4.6     0  0.04    23    24     0  1359    47     0    0.0 0.000     0     0 0.000 0.000 0.000  1.28  0.00  0.00     0     0 194.1  0.39  0.03   0.0  1.89  0.15  1.11  0.08  0.07  0.07  0.07  0.07  0.07  0.07  0.07  19843  10246   9597
 1958 127   819   788   5.0     0  0.04    23    24     0  1304    47     0    0.0 0.000     0     0 0.000 0.000 0.000  1.28  0.00  0.00     0     0 194.1  0.41  0.05   0.0  1.89  0.14  1.06  0.08  0.07  0.07  0.07  0.07  0.07  0.07  0.07  19843  10246   9597
[...]
 1958 120   812   781   4.6     0  7.05  3081  3125     0  4819  6206     0    0.0 0.000     0     0 0.000 0.000 0.000  2.53  0.00  0.00     0     0 228.7  0.66  0.02   0.0  1.89  2.87  4.51  0.51  0.23  0.22  0.24  0.25  0.25  0.20  0.20  58526  29830  28696
 1958 127   819   788   5.0     0  7.80  3431  3586     0  4927  7017     0    0.0 0.000     0     0 0.000 0.000 0.000  2.42  0.00  0.00     0     0 227.4  0.69  0.04   0.0  1.89  3.14  4.69  0.63  0.25  0.24  0.30  0.31  0.31  0.26  0.26  58872  30060  28812
 1958 134   826   795   5.3     0  8.36  3745  4007     0  5054  7752     0    0.0 0.000     0     0 0.000 0.000 0.000  2.28  0.00  0.00     0     0 223.2  0.71  0.06   0.0  1.89  3.41  4.88  0.81  0.30  0.28  0.33  0.35  0.33  0.27  0.27  59183  30267  28915
 1958 141   833   802   5.7     0  8.71  3994  4484     0  5212  8478     0    0.0 0.000     0     0 0.000 0.000 0.000  2.10  0.00  0.00     0     0 218.0  0.74  0.08   0.0  1.89  3.61  5.03  1.05  0.42  0.40  0.45  0.47  0.44  0.34  0.35  59840  30706  29134
 1958 148   840   809   6.2     0  8.80  4039  4801     0  5286  8840     0    0.0 0.000     0     0 0.000 0.000 0.000  1.99  0.00  0.00     0     0 217.8  0.78  0.10   0.0  1.89  3.62  4.93  1.24  0.53  0.51  0.56  0.58  0.53  0.41  0.42  60622  31227  29395
 1958 155   847   816   1.5     0  1.99   964  1187     0  5308  2151     0    0.0 0.000     0     0 0.000 0.000 0.055  1.60  0.00  0.00     0     0 206.6  0.58 -0.14   0.0  1.89  3.25  4.60  1.42  0.64  0.62  0.66  0.68  0.62  0.48  0.48  68262  34771  33491
 1958 162   854   823   2.1     0  2.40  1214  1446     0  5208  2660     0    0.0 0.000     0     0 0.012 0.341 0.163  1.54  0.00  0.00     0     0 198.0  0.61 -0.12   0.0  1.89  2.91  4.14  1.50  0.69  0.67  0.71  0.73  0.66  0.51  0.51  68291  34790  33501
 1958 169   861   830   2.6     0  2.77  1401  1589     0  5066  2991     0    0.0 0.000     0     0 0.000 0.000 0.000  3.13  0.00  0.00     0     0 197.7  0.63 -0.09   0.0  1.89  2.69  3.84  1.29  0.57  0.59  0.68  0.73  0.66  0.51  0.51  68301  34797  33504
 1958 176   868   837   3.1     0  3.90  1944  2079     0  5061  4022     0    0.0 0.000     0     0 0.000 0.000 0.000  3.54  0.00  0.00     0     0 200.6  0.66 -0.06   0.0  1.89  2.84  3.91  1.11  0.47  0.49  0.59  0.64  0.69  0.55  0.55  68308  34802  33506
 1958 183   875   844   0.8     0  1.31   644   666     0  5155  1310     0    0.0 0.000     0     0 0.000 0.000 0.000  2.55  0.00  0.00     0     0 204.1  0.59 -0.14   0.0  1.89  3.05  4.09  1.26  0.50  0.52  0.62  0.71  0.76  0.61  0.61  72316  36762  35554
 1958 190   882   851   1.3     0  2.05  1032  1029     0  5034  2061     0    0.0 0.000     0     0 0.000 0.000 0.000  3.45  0.00  0.00     0     0 198.9  0.61 -0.11   0.0  1.89  2.77  4.03  1.17  0.47  0.49  0.59  0.70  0.77  0.62  0.62  72322  36766  35556
 1958 197   889   858   1.9     0  2.99  1466  1422     0  4972  2888     0    0.0 0.000     0     0 0.000 0.000 0.000  4.28  0.00  0.00     0     0 204.1  0.64 -0.09   0.0  1.89  2.85  4.03  0.96  0.37  0.39  0.47  0.54  0.60  0.47  0.47  72322  36766  35556
 1958 204   896   865   2.5     0  4.43  2173  2121     0  5047  4294     0    0.0 0.000     0     0 0.000 0.000 0.000  3.46  0.00  0.00     0     0 203.9  0.67 -0.06   0.0  1.89  3.13  4.22  1.10  0.39  0.42  0.49  0.59  0.63  0.48  0.48  72357  36789  35568
 1958 211   903   872   3.0     0  5.81  2819  2794     0  5136  5613     0    0.0 0.000     0     0 0.000 0.000 0.000  2.82  0.00  0.00     0     0 206.1  0.71 -0.02   0.0  1.89  3.50  4.49  1.09  0.38  0.40  0.47  0.59  0.63  0.47  0.47  72456  36856  35601
 1958 218   910   879   1.1     0  2.08  1048  1051     0  5091  2099     0    0.0 0.000     0     0 0.000 0.000 0.000  1.94  0.00  0.00     0     0 198.7  0.63 -0.11   0.0  1.89  3.28  4.54  1.23  0.43  0.45  0.52  0.65  0.69  0.50  0.50  77044  39161  37882
 1958 225   917   886   1.6     0  2.81  1446  1456     0  5001  2903     0    0.0 0.000     0     0 0.000 0.000 0.000  1.81  0.00  0.00     0     0 194.1  0.66 -0.08   0.0  1.89  2.92  4.42  1.32  0.49  0.51  0.58  0.70  0.72  0.53  0.53  77083  39187  37895
 1958 232   924   893   2.2     0  3.62  1879  1876     0  4941  3755     0    0.0 0.000     0     0 0.000 0.000 0.000  2.34  0.00  0.00     0     0 192.7  0.69 -0.05   0.0  1.89  2.70  4.31  1.39  0.54  0.56  0.62  0.74  0.75  0.55  0.55  77117  39211  37907
 1958 239   931   900   2.7     0  4.62  2372  2320     0  4894  4692     0    0.0 0.000     0     0 0.000 0.000 0.000  3.28  0.00  0.00     0     0 194.8  0.72 -0.02   0.0  1.89  2.73  4.25  1.43  0.57  0.59  0.65  0.76  0.76  0.56  0.56  77117  39211  37907
 1958 246   938   907   0.8     0  1.63   872   870     0  5082  1742     0    0.0 0.000     0     0 0.000 0.000 0.000  2.04  0.00  0.00     0     0 187.5  0.65 -0.09   0.0  1.89  2.87  4.47  1.67  0.71  0.73  0.79  0.89  0.87  0.64  0.64  81709  41529  40180
 1958 253   945   914   1.3     0  2.29  1191  1188     0  4967  2379     0    0.0 0.000     0     0 0.000 0.000 0.000  2.22  0.00  0.00     0     0 192.4  0.67 -0.07   0.0  1.89  2.59  4.23  1.70  0.74  0.75  0.81  0.91  0.88  0.65  0.65  81720  41536  40183
 1958 260   952   921   1.7     0  2.92  1489  1442     0  4864  2931     0    0.0 0.000     0     0 0.000 0.000 0.000  3.85  0.00  0.00     0     0 196.0  0.69 -0.05   0.0  1.89  2.55  4.10  1.44  0.65  0.74  0.80  0.89  0.86  0.64  0.64  81720  41536  40183
 1958 267   959   928   2.3     0  4.02  1967  1897     0  4846  3864     0    0.0 0.000     0     0 0.000 0.000 0.000  3.89  0.00  0.00     0     0 204.2  0.72 -0.02   0.0  1.89  2.65  4.11  1.41  0.58  0.71  0.78  0.92  0.89  0.66  0.66  81722  41538  40184
 1958 274   966   935   0.5     0  1.24   602   597     0  5001  1199     0    0.0 0.000     0     0 0.000 0.000 0.000  2.69  0.00  0.00     0     0 206.6  0.75  0.00   0.0  1.89  2.97  4.33  1.61  0.66  0.79  0.87  1.03  0.97  0.72  0.73  85846  43630  42216
 1958 281   973   942   0.8     0  1.64   795   791     0  4970  1586     0    0.0 0.000     0     0 0.000 0.000 0.198  2.26  0.00  0.00     0     0 206.8  0.67 -0.07   0.0  1.89  3.03  4.35  1.53  0.56  0.67  0.75  1.05  0.99  0.74  0.74  85846  43630  42216
 1958 288   980   949   1.1     0  2.15  1090  1084     0  5042  2174     0    0.0 0.000     0     0 0.000 0.000 0.075  1.78  0.00  0.00     0     0 197.2  0.68 -0.06   0.0  1.89  2.75  4.48  1.66  0.62  0.72  0.81  1.11  1.04  0.78  0.78  85858  43638  42220
 1958 295   987   956   1.5     0  2.63  1318  1318     0  5060  2636     0    0.0 0.000     0     0 0.000 0.000 0.212  1.56  0.00  0.00     0     0 199.2  0.70 -0.05   0.0  1.89  2.58  4.50  1.75  0.67  0.78  0.86  1.15  1.08  0.80  0.80  85882  43654  42228
 1958 302   994   963   1.7     0  2.86  1437  1438     0  5073  2875     0    0.0 0.000     0     0 0.000 0.000 0.000  1.45  0.00  0.00     0     0 198.9  0.70 -0.04   0.0  1.89  2.38  4.38  1.81  0.71  0.81  0.89  1.18  1.10  0.82  0.82  85896  43663  42232
 1958 309  1001   970   1.8     0  2.98  1473  1476     0  5029  2949     0    0.0 0.000     0     0 0.000 0.000 0.000  1.46  0.00  0.00     0     0 202.3  0.71 -0.03   0.0  1.89  2.28  4.27  1.80  0.71  0.81  0.89  1.17  1.09  0.82  0.82  85900  43666  42234
 1958 316  1008   977   2.0     0  3.09  1515  1521     0  4978  3036     0    0.0 0.000     0     0 0.000 0.000 0.000  1.45  0.00  0.00     0     0 204.0  0.71 -0.03   0.0  1.89  2.28  4.23  1.80  0.71  0.81  0.89  1.16  1.09  0.81  0.81  85906  43670  42236
 1958 323  1015   984   2.3     0  3.42  1642  1656     0  4916  3299     0    0.0 0.000     0     0 0.000 0.028 0.000  1.38  0.00  0.00     0     0 208.2  0.72 -0.02   0.0  1.89  2.09  4.11  1.81  0.73  0.82  0.90  1.17  1.09  0.81  0.81  85926  43683  42243
 1958 330  1022   991   2.4     0  3.49  1667  1681     0  4864  3347     0    0.0 0.000     0     0 0.000 0.000 0.000  1.41  0.00  0.00     0     0 209.6  0.73 -0.01   0.0  1.89  1.96  3.91  1.68  0.67  0.80  0.90  1.16  1.08  0.81  0.81  85930  43686  42244
 1958 337  1029   998   2.5     0  3.52  1670  1682     0  4819  3352     0    0.0 0.000     0     0 0.000 0.000 0.000  1.46  0.00  0.00     0     0 210.6  0.74 -0.01   0.0  1.89  1.94  3.88  1.37  0.51  0.62  0.74  1.10  1.07  0.80  0.80  85930  43686  42244
 1958 344  1036  1005   2.6     0  3.54  1677  1689     0  4792  3366     0    0.0 0.000     0     0 0.000 0.000 0.000  1.48  0.00  0.00     0     0 211.3  0.74  0.00   0.0  1.89  1.94  3.86  1.34  0.44  0.54  0.68  1.08  1.06  0.80  0.80  85930  43686  42244
 1958 351  1043  1012   2.6     0  3.54  1677  1689     0  4791  3365     0    0.0 0.000     0     0 0.000 0.000 0.000  1.48  0.00  0.00     0     0 211.4  0.74  0.00   0.0  1.89  1.93  3.85  1.10  0.35  0.43  0.59  0.98  1.06  0.80  0.80  85930  43686  42244
 1958 358  1050  1019   2.6     0  3.54  1674  1686     0  4768  3359     0    0.0 0.000     0     0 0.000 0.000 0.000  1.49  0.00  0.00     0     0 211.7  0.74  0.00   0.0  1.89  1.93  3.84  1.06  0.29  0.36  0.52  0.95  1.06  0.79  0.79  85930  43686  42244
 1958 365  1057  1026   2.7     0  3.55  1674  1685     0  4750  3359     0    0.0 0.000     0     0 0.000 0.000 0.000  1.51  0.00  0.00     0     0 212.0  0.74  0.00   0.0  1.89  1.92  3.82  0.86  0.22  0.27  0.42  0.85  1.05  0.79  0.79  85930  43686  42244
 1959 007  1064  1033   2.7     0  3.56  1675  1685     0  4731  3360     0    0.0 0.000     0     0 0.000 0.000 0.000  1.54  0.00  0.00     0     0 212.3  0.74  0.00   0.0  1.89  1.91  3.80  0.73  0.17  0.21  0.33  0.71  1.01  0.79  0.79  85930  43686  42244
 1959 014  1071  1040   2.8     0  3.57  1679  1688     0  4711  3366     0    0.0 0.000     0     0 0.000 0.000 0.000  1.58  0.00  0.00     0     0 212.7  0.75  0.00   0.0  1.89  1.90  3.79  0.64  0.13  0.16  0.25  0.60  0.96  0.78  0.78  85930  43686  42244
 1959 021  1078  1047   2.9     0  3.61  1691  1700     0  4683  3391     0    0.0 0.000     0     0 0.000 0.000 0.000  1.59  0.00  0.00     0     0 213.3  0.75  0.00   0.0  1.89  1.90  3.77  0.53  0.10  0.12  0.19  0.46  0.76  0.68  0.78  85932  43687  42244
 1959 028  1085  1054   2.9     0  3.65  1699  1709     0  4651  3408     0    0.0 0.000     0     0 0.000 0.000 0.000  1.60  0.00  0.00     0     0 214.5  0.75  0.01   0.0  1.89  1.89  3.74  0.43  0.10  0.10  0.15  0.36  0.61  0.55  0.63  85933  43688  42245
 1959 035  1092  1061   3.0     0  3.67  1702  1712     0  4619  3415     0    0.0 0.000     0     0 0.000 0.000 0.000  1.60  0.00  0.00     0     0 215.5  0.76  0.01   0.0  1.89  1.88  3.72  0.35  0.10  0.10  0.11  0.28  0.51  0.46  0.54  85934  43689  42245
 1959 042  1099  1068   3.1     0  3.74  1720  1731     0  4576  3451     0    0.0 0.000     0     0 0.000 0.000 0.000  1.59  0.00  0.00     0     0 217.7  0.76  0.02   0.0  1.89  1.88  3.70  0.27  0.10  0.10  0.10  0.20  0.37  0.33  0.39  85937  43691  42246
 1959 049  1106  1075   3.3     0  3.83  1760  1772     0  4549  3533     0    0.0 0.000     0     0 0.000 0.000 0.187  1.57  0.00  0.00     0     0 217.7  0.77  0.02   0.0  1.89  1.91  3.70  0.22  0.11  0.10  0.10  0.16  0.29  0.26  0.31  85942  43694  42248
 1959 056  1113  1082   3.3     0  3.86  1768  1779     0  4525  3547     0    0.0 0.000     0     0 0.000 0.000 0.000  1.58  0.00  0.00     0     0 218.3  0.77  0.02   0.0  1.89  1.89  3.68  0.22  0.10  0.10  0.10  0.14  0.26  0.23  0.27  85942  43694  42248
 1959 063  1120  1089   3.4     0  3.88  1770  1782     0  4490  3552     0    0.0 0.000     0     0 0.000 0.000 0.000  1.58  0.00  0.00     0     0 219.1  0.77  0.03   0.0  1.89  1.87  3.65  0.22  0.10  0.10  0.10  0.12  0.26  0.22  0.27  85943  43695  42248
 1959 070  1127  1096   3.5     0  3.90  1776  1788     0  4459  3564     0    0.0 0.000     0     0 0.000 0.000 0.000  1.59  0.00  0.00     0     0 219.3  0.78  0.03   0.0  1.89  1.86  3.63  0.19  0.10  0.10  0.10  0.10  0.22  0.19  0.25  85944  43695  42248
 1959 077  1134  1103   3.6     0  4.00  1827  1837     0  4441  3664     0    0.0 0.000     0     0 0.000 0.000 0.000  1.65  0.00  0.00     0     0 218.7  0.78  0.03   0.0  1.89  1.88  3.63  0.17  0.09  0.10  0.10  0.10  0.17  0.16  0.20  85949  43699  42250
 1959 084  1141  1110   3.7     0  4.05  1846  1851     0  4393  3698     0    0.0 0.000     0     0 0.000 0.000 0.000  1.84  0.00  0.00     0     0 219.3  0.79  0.04   0.0  1.89  1.86  3.58  0.14  0.09  0.10  0.10  0.09  0.13  0.12  0.15  85949  43699  42250
 1959 091  1148  1117   3.9     0  4.34  1977  1959     0  4361  3936     0    0.0 0.000     0     0 0.000 0.000 0.000  2.59  0.00  0.00     0     0 219.4  0.80  0.04   0.0  1.89  1.85  3.54  0.12  0.10  0.10  0.10  0.10  0.11  0.10  0.12  85949  43699  42250
 1959 098  1155  1124   4.2     0  5.17  2389  2380     0  4466  4769     0    0.0 0.000     0     0 0.000 0.000 0.000  2.39  0.00  0.00     0     0 216.2  0.81  0.05   0.0  1.89  2.11  3.73  0.25  0.14  0.14  0.15  0.14  0.14  0.13  0.14  85978  43718  42260
 1959 105  1162  1131   4.5     0  5.85  2663  2654     0  4490  5317     0    0.0 0.000     0     0 0.000 0.000 0.000  2.38  0.00  0.00     0     0 219.8  0.83  0.07   0.0  1.89  2.17  3.80  0.32  0.16  0.15  0.17  0.16  0.16  0.13  0.14  85997  43731  42266
 1959 112  1169  1138   4.8     0  6.55  2972  2979     0  4546  5951     0    0.0 0.000     0     0 0.000 0.000 0.000  2.41  0.00  0.00     0     0 220.4  0.84  0.08   0.0  1.89  2.34  3.91  0.43  0.18  0.18  0.19  0.18  0.18  0.14  0.15  86069  43779  42290
 1959 119  1176  1145   5.1     0  7.37  3390  3418     0  4664  6808     0    0.0 0.000     0     0 0.000 0.000 0.000  2.31  0.00  0.00     0     0 217.4  0.86  0.09   0.0  1.89  2.56  4.07  0.59  0.23  0.25  0.26  0.25  0.23  0.18  0.19  86145  43830  42316
 1959 126  1183  1152   5.5     0  8.21  3816  3965     0  4835  7781     0    0.0 0.000     0     0 0.000 0.000 0.000  2.14  0.00  0.00     0     0 215.1  0.88  0.10   0.0  1.89  2.89  4.31  0.78  0.29  0.31  0.35  0.34  0.32  0.26  0.27  86505  44069  42435
 1959 133  1190  1159   5.9     0  8.44  3946  4339     0  4942  8285     0    0.0 0.000     0     0 0.000 0.000 0.000  2.05  0.00  0.00     0     0 213.9  0.93  0.10   0.0  1.89  3.01  4.40  0.98  0.40  0.42  0.46  0.46  0.42  0.34  0.35  87231  44553  42678
 1959 140  1197  1166   6.3     0  8.63  4045  4643     0  5027  8688     0    0.0 0.000     0     0 0.000 0.000 0.000  1.96  0.00  0.00     0     0 213.3  0.96  0.10   0.0  1.89  3.13  4.51  1.14  0.49  0.51  0.55  0.54  0.49  0.39  0.40  87820  44946  42874
 1959 147  1204  1173   6.8     0  8.44  3914  4811     0  5028  8725     0    0.0 0.000     0     0 0.000 0.000 0.000  1.95  0.00  0.00     0     0 215.7  1.01  0.10   0.0  1.89  3.31  4.60  1.04  0.43  0.44  0.49  0.56  0.53  0.42  0.43  88691  45527  43164
 1959 154  1211  1180   1.6     0  1.82   841  1078     0  5019  1919     0    0.0 0.000     0     0 0.000 0.000 0.000  2.78  0.00  0.00     0     0 216.1  0.79 -0.18   0.0  1.89  3.50  4.70  0.92  0.35  0.37  0.40  0.45  0.44  0.34  0.35  96379  49039  47340
 1959 161  1218  1187   2.1     0  2.90  1370  1609     0  5049  2979     0    0.0 0.000     0     0 0.000 0.000 0.000  2.98  0.00  0.00     0     0 212.0  0.81 -0.16   0.0  1.89  3.51  4.78  1.04  0.36  0.37  0.42  0.44  0.43  0.31  0.33  96422  49068  47354
 1959 168  1225  1194   2.6     0  4.00  1923  2139     0  5068  4062     0    0.0 0.000     0     0 0.000 0.000 0.000  3.62  0.00  0.00     0     0 208.0  0.83 -0.13   0.0  1.89  3.61  4.81  1.06  0.34  0.35  0.41  0.46  0.45  0.32  0.33  96459  49093  47367
 1959 175  1232  1201   3.1     0  5.54  2734  3005     0  5281  5739     0    0.0 0.000     0     0 0.000 0.000 0.000  2.62  0.00  0.00     0     0 202.7  0.86 -0.10   0.0  1.89  3.23  5.07  1.38  0.51  0.50  0.58  0.63  0.60  0.42  0.43  96604  49189  47415
 1959 182  1239  1208   0.7     0  1.50   721   785     0  5347  1506     0    0.0 0.000     0     0 0.000 0.000 0.000  1.95  0.00  0.00     0     0 208.5  0.90 -0.07   0.0  1.89  2.84  4.91  1.60  0.64  0.63  0.70  0.76  0.70  0.50  0.52 102165  51865  50301
 1959 189  1246  1215   1.3     0  2.06   993  1054     0  5166  2047     0    0.0 0.000     0     0 0.000 0.000 0.000  2.48  0.00  0.00     0     0 207.2  0.80 -0.18   0.0  1.89  2.56  4.55  1.60  0.65  0.65  0.71  0.76  0.71  0.51  0.52 102173  51870  50303
 1959 196  1253  1222   1.9     0  3.11  1510  1538     0  5121  3049     0    0.0 0.000     0     0 0.000 0.000 0.000  3.67  0.00  0.00     0     0 205.6  0.83 -0.15   0.0  1.89  2.47  4.50  1.64  0.68  0.68  0.74  0.79  0.73  0.53  0.54 102182  51876  50306
 1959 203  1260  1229   2.4     0  4.34  2125  2144     0  5150  4269     0    0.0 0.000     0     0 0.000 0.000 0.000  3.48  0.00  0.00     0     0 204.4  0.86 -0.12   0.0  1.89  2.50  4.54  1.55  0.61  0.62  0.73  0.85  0.79  0.58  0.59 102220  51902  50319
 1959 210  1267  1236   3.0     0  5.89  2950  3021     0  5340  5971     0    0.0 0.000     0     0 0.000 0.000 0.000  2.64  0.00  0.00     0     0 199.5  0.89 -0.09   0.0  1.89  2.57  4.81  1.82  0.75  0.76  0.88  0.99  0.91  0.67  0.68 102361  51995  50366
 1959 217  1274  1243   1.0     0  1.88   927   947     0  5310  1875     0    0.0 0.000     0     0 0.000 0.000 0.000  2.11  0.00  0.00     0     0 202.2  0.80 -0.17   0.0  1.89  2.43  4.71  1.93  0.82  0.83  0.94  1.06  0.96  0.71  0.72 107585  54580  53005
 1959 224  1281  1250   1.5     0  2.58  1314  1343     0  5285  2657     0    0.0 0.000     0     0 0.000 0.000 0.000  1.76  0.00  0.00     0     0 196.7  0.83 -0.15   0.0  1.89  2.24  4.48  2.04  0.89  0.90  1.01  1.11  1.01  0.75  0.76 107626  54607  53019
 1959 231  1288  1257   2.0     0  3.13  1590  1613     0  5248  3203     0    0.0 0.000     0     0 0.000 0.000 0.000  2.17  0.00  0.00     0     0 197.0  0.85 -0.12   0.0  1.89  2.01  4.15  2.02  0.89  0.93  1.05  1.15  1.05  0.78  0.78 107659  54629  53030
 1959 238  1295  1264   2.6     0  4.08  2047  2006     0  5159  4053     0    0.0 0.000     0     0 0.000 0.000 0.000  3.60  0.00  0.00     0     0 199.5  0.88 -0.09   0.0  1.89  2.05  4.05  1.91  0.78  0.83  1.04  1.14  1.03  0.77  0.77 107665  54633  53032
 1959 245  1302  1271   0.7     0  1.28   628   618     0  5169  1247     0    0.0 0.000     0     0 0.000 0.000 0.000  2.92  0.00  0.00     0     0 204.4  0.81 -0.17   0.0  1.89  2.17  4.14  1.92  0.81  0.90  1.10  1.19  1.07  0.80  0.81 111634  56640  54994
 1959 252  1309  1278   1.3     0  1.69   824   787     0  4971  1611     0    0.0 0.000     0     0 0.000 0.000 0.000  4.84  0.00  0.00     0     0 204.6  0.84 -0.14   0.0  1.89  2.09  3.96  1.43  0.57  0.63  0.87  1.09  1.03  0.77  0.77 111634  56640  54994
 1959 259  1316  1285   1.7     0  2.22  1039   985     0  4856  2024     0    0.0 0.000     0     0 0.000 0.000 0.000  5.04  0.00  0.00     0     0 213.6  0.86 -0.12   0.0  1.89  2.12  3.90  1.02  0.39  0.44  0.60  0.75  0.76  0.68  0.76 111634  56640  54994
 1959 266  1323  1292   2.1     0  3.32  1571  1505     0  4929  3076     0    0.0 0.000     0     0 0.000 0.000 0.000  4.20  0.00  0.00     0     0 211.2  0.87 -0.10   0.0  1.89  2.15  4.05  1.12  0.39  0.43  0.57  0.72  0.72  0.66  0.75 111635  56641  54994
 1959 273  1330  1299   2.6     0  4.80  2278  2232     0  5082  4510     0    0.0 0.000     0     0 0.000 0.000 0.000  3.25  0.00  0.00     0     0 210.5  0.90 -0.08   0.0  1.89  2.04  4.30  1.35  0.52  0.55  0.70  0.84  0.82  0.73  0.82 111710  56691  55019
 1959 280  1337  1306   1.0     0  1.88   852   845     0  5011  1697     0    0.0 0.000     0     0 0.000 0.000 0.000  2.35  0.00  0.00     0     0 220.2  0.85 -0.13   0.0  1.89  1.98  4.30  1.43  0.57  0.60  0.74  0.88  0.85  0.74  0.83 115318  58513  56805
