*GROWTH ASPECTS OUTPUT FILE

*RUN   1        :  X304C 0 kg N/ha         
 MODEL          : MZCER020 - MAIZE     
 EXPERIMENT     : IBWA8301 MZ     IBWA8301MZ N X VAR WAPIO, IBSNAT EXP.1983-4   
 TREATMENT  1   :  X304C 0 kg N/ha         

@YEAR DOY   DAS   DAP  L#SD  GSTD  LAID  LWAD  SWAD  GWAD  RWAD  CWAD  G#AD  GWGD  HIAD  PWAD  P#AD  WSPD  WSGD  NSTD  EWSD  LN%D  SH%D  HIPD  PWDD  PWTD    SLAD  CHTD  CWID  RDPD  RL1D  RL2D  RL3D  RL4D  RL5D  RL6D  RL7D  RL8D  RL9D  RL10  CDAD  LDAD  SDAD
 1983 334     8     0   0.0     0  0.00     0     0     0     0     0     0   0.0 0.000     0     0 0.000 0.000 0.000 0.000  0.00  0.00  0.00     0     0     0.0  0.00  0.00  0.05  0.00  0.00  0.00  0.00  0.00  0.00  0.00  0.00  0.00  0.00     0     0     0
 1983 335     9     1   0.0     0  0.00     0     0     0     0     0     0   0.0 0.000     0     0 0.000 0.000 0.000 0.000  0.00  0.00  0.00     0     0     0.0  0.00  0.00  0.08  0.00  0.00  0.00  0.00  0.00  0.00  0.00  0.00  0.00  0.00     0     0     0
 1983 336    10     2   0.0     0  0.00     0     0     0     0     0     0   0.0 0.000     0     0 0.000 0.000 0.000 0.000  0.00  0.00  0.00     0     0     0.0  0.00  0.00  0.10  0.00  0.00  0.00  0.00  0.00  0.00  0.00  0.00  0.00  0.00     0     0     0
 1983 337    11     3   0.0     0  0.00     0     0     0     0     0     0   0.0 0.000     0     0 0.000 0.000 0.000 0.000  0.00  0.00  0.00     0     0     0.0  0.00  0.00  0.13  0.00  0.00  0.00  0.00  0.00  0.00  0.00  0.00  0.00  0.00     0     0     0
 1983 338    12     4   0.0     0  0.00     0     0     0     0     0     0   0.0 0.000     0     0 0.000 0.000 0.000 0.000  0.00  0.00  0.00     0     0     0.0  0.00  0.00  0.15  0.00  0.00  0.00  0.00  0.00  0.00  0.00  0.00  0.00  0.00     0     0     0
 1983 339    13     5   0.0     0  0.00     0     0     0     0     0     0   0.0 0.000     0     0 0.000 0.000 0.000 0.000  0.00  0.00  0.00     0     0     0.0  0.00  0.00  0.18  0.00  0.00  0.00  0.00  0.00  0.00  0.00  0.00  0.00  0.00     0     0     0
 1983 340    14     6   2.0     1  0.00    12    12     0    12    23     0   0.0 0.000     0     0 0.000 0.000 0.012 0.000  4.40  0.00  0.00     0     0    31.0  0.00  0.00  0.19  0.23  0.12  0.01  0.00  0.00  0.00  0.00  0.00  0.00  0.00     0     0     0
 1983 341    15     7   2.0     1  0.01    12    12     0    12    23     0   0.0 0.000     0     0 0.000 0.000 0.015 0.000  4.52  0.00  0.00     0     0    62.4  0.00  0.00  0.21  0.23  0.12  0.01  0.00  0.00  0.00  0.00  0.00  0.00  0.00     0     0     0
 1983 342    16     8   3.0     1  0.01    12    12     0    13    23     0   0.0 0.000     0     0 0.000 0.000 0.000 0.000  4.49  0.00  0.00     0     0    96.4  0.00  0.00  0.22  0.23  0.12  0.02  0.00  0.00  0.00  0.00  0.00  0.00  0.00     0     0     0
 1983 343    17     9   3.0     1  0.02    12    12     0    14    23     0   0.0 0.000     0     0 0.000 0.000 0.000 0.000  4.46  0.00  0.00     0     0   136.4  0.00  0.00  0.24  0.24  0.13  0.02  0.00  0.00  0.00  0.00  0.00  0.00  0.00     0     0     0
 1983 344    18    10   4.0     1  0.03    12    12     0    15    23     0   0.0 0.000     0     0 0.000 0.000 0.000 0.000  4.43  0.00  0.00     0     0   264.4  0.00  0.00  0.25  0.25  0.15  0.03  0.00  0.00  0.00  0.00  0.00  0.00  0.00     0     0     0
 1983 345    19    11   4.0     1  0.04    12    12     0    17    24     0   0.0 0.000     0     0 0.000 0.000 0.000 0.000  4.41  0.00  0.00     0     0   338.5  0.00  0.00  0.26  0.26  0.17  0.04  0.00  0.00  0.00  0.00  0.00  0.00  0.00     0     0     0
 1983 346    20    12   4.0     1  0.06    19    12     0    18    31     0   0.0 0.000     0     0 0.000 0.000 0.000 0.000  4.39  0.00  0.00     0     0   310.9  0.00  0.00  0.27  0.27  0.17  0.04  0.00  0.00  0.00  0.00  0.00  0.00  0.00     0     0     0
 1983 347    21    13   5.0     1  0.08    27    12     0    19    39     0   0.0 0.000     0     0 0.000 0.000 0.000 0.000  4.36  0.00  0.00     0     0   288.7  0.00  0.00  0.28  0.27  0.18  0.05  0.00  0.00  0.00  0.00  0.00  0.00  0.00     0     0     0
 1983 348    22    14   5.0     1  0.09    34    12     0    22    46     0   0.0 0.000     0     0 0.000 0.000 0.000 0.000  4.34  0.00  0.00     0     0   275.9  0.00  0.00  0.29  0.28  0.20  0.07  0.00  0.00  0.00  0.00  0.00  0.00  0.00     0     0     0
 1983 349    23    15   5.0     1  0.11    43    12     0    24    55     0   0.0 0.000     0     0 0.000 0.000 0.000 0.000  4.32  0.00  0.00     0     0   262.9  0.00  0.00  0.30  0.28  0.21  0.08  0.00  0.00  0.00  0.00  0.00  0.00  0.00     0     0     0
 1983 350    24    16   6.0     1  0.14    54    12     0    28    66     0   0.0 0.000     0     0 0.000 0.000 0.000 0.000  4.30  0.00  0.00     0     0   251.1  0.00  0.00  0.31  0.30  0.24  0.10  0.00  0.00  0.00  0.00  0.00  0.00  0.00     0     0     0
 1983 351    25    17   6.0     1  0.16    65    12     0    33    77     0   0.0 0.000     0     0 0.000 0.000 0.000 0.000  4.28  0.00  0.00     0     0   241.5  0.00  0.00  0.32  0.33  0.28  0.14  0.00  0.00  0.00  0.00  0.00  0.00  0.00     0     0     0
 1983 352    26    18   6.0     1  0.18    78    12     0    40    90     0   0.0 0.000     0     0 0.000 0.000 0.000 0.000  4.26  0.00  0.00     0     0   232.6  0.00  0.00  0.33  0.36  0.33  0.18  0.01  0.00  0.00  0.00  0.00  0.00  0.00     0     0     0
 1983 353    27    19   7.0     1  0.21    93    12     0    52   105     0   0.0 0.000     0     0 0.000 0.000 0.000 0.000  4.24  0.00  0.00     0     0   224.5  0.00  0.00  0.34  0.41  0.41  0.25  0.02  0.00  0.00  0.00  0.00  0.00  0.00     0     0     0
 1983 354    28    20   7.0     1  0.24   110    12     0    63   121     0   0.0 0.000     0     0 0.000 0.000 0.000 0.000  4.22  0.00  0.00     0     0   217.0  0.00  0.00  0.34  0.46  0.47  0.31  0.03  0.00  0.00  0.00  0.00  0.00  0.00     0     0     0
 1983 355    29    21   7.0     1  0.27   129    12     0    71   140     0   0.0 0.000     0     0 0.000 0.000 0.000 0.000  4.19  0.00  0.00     0     0   209.9  0.00  0.00  0.36  0.49  0.52  0.36  0.05  0.00  0.00  0.00  0.00  0.00  0.00     0     0     0
 1983 356    30    22   8.0     1  0.31   153    12     0    85   164     0   0.0 0.000     0     0 0.000 0.000 0.000 0.000  4.16  0.00  0.00     0     0   202.6  0.00  0.00  0.38  0.53  0.61  0.45  0.08  0.00  0.00  0.00  0.00  0.00  0.00     0     0     0
 1983 357    31    23   8.0     1  0.36   182    12     0    91   194     0   0.0 0.000     0     0 0.000 0.000 0.000 0.000  4.13  0.00  0.00     0     0   195.4  0.00  0.00  0.39  0.55  0.63  0.48  0.10  0.00  0.00  0.00  0.00  0.00  0.00     0     0     0
 1983 358    32    24   8.0     1  0.41   217    12     0    96   229     0   0.0 0.000     0     0 0.000 0.000 0.000 0.000  4.11  0.00  0.00     0     0   188.4  0.00  0.00  0.41  0.56  0.65  0.50  0.12  0.00  0.00  0.00  0.00  0.00  0.00     0     0     0
 1983 359    33    25   9.0     1  0.47   256    12     0   103   267     0   0.0 0.000     0     0 0.000 0.000 0.000 0.000  4.07  0.00  0.00     0     0   182.0  0.00  0.00  0.43  0.57  0.67  0.53  0.16  0.00  0.00  0.00  0.00  0.00  0.00     0     0     0
 1983 360    34    26   9.0     1  0.53   299    12     0   110   311     0   0.0 0.000     0     0 0.000 0.000 0.000 0.000  4.02  0.00  0.00     0     0   176.2  0.00  0.00  0.45  0.59  0.69  0.55  0.21  0.00  0.00  0.00  0.00  0.00  0.00     0     0     0
 1983 361    35    27  10.0     1  0.59   345    12     0   125   356     0   0.0 0.000     0     0 0.000 0.000 0.003 0.000  3.94  0.00  0.00     0     0   171.0  0.00  0.00  0.47  0.63  0.71  0.57  0.35  0.01  0.00  0.00  0.00  0.00  0.00     0     0     0
 1983 362    36    28  10.0     1  0.69   386    12     0   132   397     0   0.0 0.000     0     0 0.000 0.000 0.011 0.000  3.89  0.00  0.00     0     0   178.5  0.00  0.00  0.48  0.62  0.71  0.58  0.42  0.03  0.00  0.00  0.00  0.00  0.00     0     0     0
 1983 363    37    29  10.0     1  0.79   460    12     0   144   472     0   0.0 0.000     0     0 0.000 0.000 0.014 0.000  3.52  0.00  0.00     0     0   172.0  0.00  0.00  0.50  0.62  0.73  0.59  0.52  0.07  0.00  0.00  0.00  0.00  0.00     0     0     0
 1983 364    38    30  11.0     1  0.89   534    12     0   157   546     0   0.0 0.000     0     0 0.000 0.000 0.062 0.000  3.30  0.00  0.00     0     0   166.3  0.00  0.00  0.51  0.71  0.74  0.60  0.58  0.12  0.00  0.00  0.00  0.00  0.00     0     0     0
 1983 365    39    31  11.0     1  0.98   613    12     0   170   624     0   0.0 0.000     0     0 0.000 0.000 0.089 0.000  3.10  0.00  0.00     0     0   160.7  0.00  0.00  0.53  0.73  0.75  0.61  0.64  0.20  0.00  0.00  0.00  0.00  0.00     0     0     0
 1984 001    40    32  12.0     1  1.08   694    12     0   184   705     0   0.0 0.000     0     0 0.000 0.000 0.114 0.000  2.92  0.00  0.00     0     0   155.2  0.00  0.00  0.55  0.75  0.77  0.63  0.68  0.31  0.00  0.00  0.00  0.00  0.00     0     0     0
 1984 002    41    33  12.0     2  1.15   764    12     0   215   776     0   0.0 0.000     0     0 0.000 0.000 0.137 0.000  2.79  0.00  0.00     0     0   150.3  0.00  0.00  0.57  0.80  0.83  0.67  0.72  0.57  0.00  0.00  0.00  0.00  0.00     0     0     0
 1984 003    42    34  12.0     2  1.20   820    12     0   230   832     0   0.0 0.000     0     0 0.000 0.000 0.156 0.000  2.72  0.00  0.00     0     0   145.8  0.00  0.00  0.58  0.80  0.86  0.69  0.73  0.71  0.00  0.00  0.00  0.00  0.00     0     0     0
 1984 004    43    35  13.0     2  1.25   879    12     0   251   891     0   0.0 0.000     0     0 0.000 0.000 0.158 0.000  2.63  0.00  0.00     0     0   141.7  0.00  0.00  0.59  0.79  0.91  0.73  0.75  0.90  0.00  0.00  0.00  0.00  0.00     0     0     0
 1984 005    44    36  13.0     2  1.30   947    12     0   263   958     0   0.0 0.000     0     0 0.000 0.000 0.163 0.000  2.52  0.00  0.00     0     0   137.6  0.00  0.00  0.61  0.79  0.94  0.76  0.75  1.00  0.00  0.00  0.00  0.00  0.00     0     0     0
 1984 006    45    37  14.0     3  1.37  1029    12     0   301  1041     0   0.0 0.000     0     0 0.000 0.000 0.097 0.000  2.39  0.00  0.00     0     0   133.4  0.00  0.00  0.62  1.22  1.02  0.82  0.79  1.18  0.01  0.00  0.00  0.00  0.00     0     0     0
 1984 007    46    38  14.0     3  1.45  1109    13     0   343  1121     0   0.0 0.000     0     0 0.000 0.000 0.103 0.000  2.28  0.00  0.00     0     0   130.7  0.00  0.00  0.63  1.40  1.16  0.93  0.84  1.38  0.03  0.00  0.00  0.00  0.00     0     0     0
 1984 008    47    39  14.0     3  1.52  1184    14     0   387  1199     0   0.0 0.000     0     0 0.000 0.000 0.116 0.000  2.18  0.00  0.00     0     0   128.0  0.00  0.00  0.64  1.59  1.32  1.06  0.90  1.52  0.06  0.00  0.00  0.00  0.00     0     0     0
 1984 009    48    40  15.0     3  1.58  1259    17     0   445  1276     0   0.0 0.000     0     0 0.000 0.000 0.128 0.000  2.11  0.00  0.00     0     0   125.2  0.00  0.00  0.65  2.06  1.53  1.23  0.98  1.62  0.12  0.00  0.00  0.00  0.00     0     0     0
 1984 010    49    41  15.0     3  1.63  1331    22     0   459  1353     0   0.0 0.000     0     0 0.000 0.000 0.137 0.000  2.04  0.00  0.00     0     0   122.5  0.00  0.00  0.65  2.12  1.59  1.28  1.00  1.63  0.14  0.00  0.00  0.00  0.00     0     0     0
 1984 011    50    42  15.0     3  1.68  1402    29     0   489  1431     0   0.0 0.000     0     0 0.000 0.000 0.145 0.000  1.98  0.00  0.00     0     0   119.9  0.00  0.00  0.66  2.24  1.72  1.38  1.05  1.65  0.18  0.00  0.00  0.00  0.00     0     0     0
 1984 012    51    43  16.0     3  1.72  1469    37     0   520  1506     0   0.0 0.000     0     0 0.000 0.000 0.154 0.000  1.93  0.00  0.00     0     0   117.2  0.00  0.00  0.67  2.37  1.85  1.48  1.10  1.68  0.23  0.00  0.00  0.00  0.00     0     0     0
 1984 013    52    44  16.0     3  1.77  1542    49     0   539  1590     0   0.0 0.000     0     0 0.000 0.000 0.160 0.000  1.87  0.00  0.00     0     0   114.6  0.00  0.00  0.68  2.44  1.92  1.54  1.13  1.70  0.26  0.00  0.00  0.00  0.00     0     0     0
 1984 014    53    45  17.0     3  1.81  1615    64     0   555  1679     0   0.0 0.000     0     0 0.000 0.000 0.167 0.000  1.81  0.00  0.00     0     0   112.0  0.00  0.00  0.69  2.51  1.99  1.60  1.15  1.71  0.29  0.00  0.00  0.00  0.00     0     0     0
 1984 015    54    46  17.0     3  1.84  1682    82     0   574  1764     0   0.0 0.000     0     0 0.000 0.000 0.176 0.000  1.76  0.00  0.00     0     0   109.5  0.00  0.00  0.70  2.58  2.07  1.66  1.18  1.72  0.32  0.00  0.00  0.00  0.00     0     0     0
 1984 016    55    47  17.0     3  1.88  1754   105     0   594  1859     0   0.0 0.000     0     0 0.000 0.000 0.183 0.000  1.71  0.00  0.00     0     0   106.9  0.00  0.00  0.71  2.66  2.14  1.72  1.21  1.74  0.35  0.00  0.00  0.00  0.00     0     0     0
 1984 017    56    48  18.0     3  1.91  1827   133     0   601  1960     0   0.0 0.000     0     0 0.000 0.000 0.191 0.000  1.65  0.00  0.00     0     0   104.4  0.00  0.00  0.72  2.68  2.18  1.75  1.22  1.74  0.37  0.00  0.00  0.00  0.00     0     0     0
 1984 018    57    49  18.0     3  1.93  1893   165     0   604  2058     0   0.0 0.000     0     0 0.000 0.000 0.201 0.000  1.60  0.00  0.00     0     0   101.9  0.00  0.00  0.73  2.69  2.19  1.75  1.23  1.74  0.38  0.00  0.00  0.00  0.00     0     0     0
 1984 019    58    50  19.0     3  1.95  1960   202     0   629  2162     0   0.0 0.000     0     0 0.000 0.000 0.225 0.000  1.55  0.00  0.00     0     0    99.3  0.00  0.00  0.74  2.79  2.29  1.84  1.26  1.76  0.42  0.00  0.00  0.00  0.00     0     0     0
 1984 020    59    51  19.0     3  1.96  2021   241     0   671  2262     0   0.0 0.000     0     0 0.000 0.000 0.249 0.000  1.51  0.00  0.00     0     0    96.8  0.00  0.00  0.75  2.96  2.46  1.97  1.33  1.79  0.49  0.00  0.00  0.00  0.00     0     0     0
 1984 021    60    52  19.0     3  1.96  2079   283     0   710  2361     0   0.0 0.000     0     0 0.000 0.000 0.271 0.000  1.47  0.00  0.00     0     0    94.3  0.00  0.00  0.76  3.12  2.62  2.10  1.39  1.83  0.55  0.00  0.00  0.00  0.00     0     0     0
 1984 022    61    53  20.0     3  1.97  2139   333     0   742  2472     0   0.0 0.000     0     0 0.000 0.000 0.288 0.000  1.43  0.00  0.00     0     0    91.9  0.00  0.00  0.77  3.25  2.75  2.20  1.44  1.86  0.60  0.00  0.00  0.00  0.00     0     0     0
 1984 023    62    54  20.0     3  1.96  2192   383     0   773  2575     0   0.0 0.000     0     0 0.000 0.000 0.313 0.000  1.39  0.00  0.00     0     0    89.4  0.00  0.00  0.78  3.23  2.90  2.33  1.50  1.90  0.64  0.00  0.00  0.00  0.00     0     0     0
 1984 024    63    55  21.0     3  1.96  2248   442     0   791  2689     0   0.0 0.000     0     0 0.000 0.000 0.333 0.000  1.35  0.00  0.00     0     0    87.0  0.00  0.00  0.79  3.21  2.99  2.40  1.53  1.91  0.67  0.00  0.00  0.00  0.00     0     0     0
 1984 025    64    56  21.0     3  1.94  2298   501     0   816  2799     0   0.0 0.000     0     0 0.000 0.000 0.359 0.000  1.31  0.00  0.00     0     0    84.6  0.00  0.00  0.81  3.20  3.12  2.50  1.58  1.94  0.70  0.00  0.00  0.00  0.00     0     0     0
 1984 026    65    57  21.0     3  1.93  2343   558     0   827  2901     0   0.0 0.000     0     0 0.000 0.000 0.382 0.000  1.28  0.00  0.00     0     0    82.2  0.00  0.00  0.81  3.28  3.16  2.54  1.60  1.95  0.71  0.00  0.00  0.00  0.00     0     0     0
 1984 027    66    58  22.0     3  1.91  2387   621     0   839  3008     0   0.0 0.000     0     0 0.000 0.000 0.390 0.000  1.26  0.00  0.00     0     0    79.8  0.00  0.00  0.82  3.33  3.22  2.58  1.62  1.96  0.73  0.00  0.00  0.00  0.00     0     0     0
 1984 028    67    59  22.0     3  1.88  2430   686     0   849  3115     0   0.0 0.000     0     0 0.000 0.000 0.402 0.000  1.23  0.00  0.00     0     0    77.5  0.00  0.00  0.83  3.38  3.27  2.62  1.64  1.96  0.73  0.00  0.00  0.00  0.00     0     0     0
 1984 029    68    60  23.0     3  1.86  2474   760     0   851  3234     0   0.0 0.000     0     0 0.000 0.000 0.410 0.000  1.20  0.00  0.00     0     0    75.3  0.00  0.00  0.84  3.40  3.29  2.63  1.64  1.96  0.73  0.00  0.00  0.00  0.00     0     0     0
 1984 030    69    61  23.0     3  1.84  2516   837     0   867  3353     0   0.0 0.000     0     0 0.000 0.000 0.424 0.000  1.18  0.00  0.00     0     0    73.1  0.00  0.00  0.85  3.48  3.37  2.70  1.67  1.98  0.74  0.00  0.00  0.00  0.00     0     0     0
 1984 031    70    62  23.0     3  1.80  2544   890     0   868  3434     0   0.0 0.000     0     0 0.000 0.000 0.438 0.000  1.16  0.00  0.00     0     0    70.9  0.00  0.00  0.86  3.48  3.38  2.70  1.67  1.98  0.73  0.00  0.00  0.00  0.00     0     0     0
 1984 032    71    63  24.0     3  1.77  2573   952     0   868  3525     0   0.0 0.000     0     0 0.000 0.000 0.432 0.000  1.15  0.00  0.00     0     0    68.7  0.00  0.00  0.87  3.49  3.38  2.71  1.68  1.97  0.73  0.00  0.00  0.00  0.00     0     0     0
 1984 033    72    64  24.0     3  1.74  2604  1019     0   869  3623     0   0.0 0.000     0     0 0.000 0.000 0.432 0.000  1.13  0.00  0.00     0     0    66.7  0.00  0.00  0.88  3.50  3.39  2.72  1.68  1.97  0.73  0.00  0.00  0.00  0.00     0     0     0
 1984 034    73    65  24.0     3  1.70  2626  1073     0   869  3699     0   0.0 0.000     0     0 0.000 0.000 0.436 0.000  1.12  0.00  0.00     0     0    64.7  0.00  0.00  0.88  3.50  3.40  2.72  1.68  1.96  0.73  0.00  0.00  0.00  0.00     0     0     0
 1984 035    74    66  25.0     3  1.69  2679  1097     0   869  3776     0   0.0 0.000     0     0 0.000 0.000 0.429 0.000  1.11  0.00  0.00     0     0    63.1  0.00  0.00  0.89  3.51  3.40  2.72  1.68  1.96  0.73  0.00  0.00  0.00  0.00     0     0     0
 1984 036    75    67  25.0     3  1.67  2717  1136     0   869  3853     0   0.0 0.000     0     0 0.000 0.000 0.419 0.000  1.11  0.00  0.00     0     0    61.4  0.00  0.00  0.90  3.51  3.41  2.73  1.68  1.95  0.72  0.00  0.00  0.00  0.00     0     0     0
 1984 037    76    68  25.0     3  1.66  2763  1201     0   874  3963     0   0.0 0.000     0     0 0.000 0.000 0.409 0.000  1.09  0.00  0.00     0     0    59.9  0.00  0.00  0.90  3.54  3.44  2.75  1.69  1.96  0.72  0.00  0.00  0.00  0.00     0     0     0
 1984 038    77    69  26.0     3  1.63  2798  1261     0   875  4058     0   0.0 0.000     0     0 0.000 0.000 0.409 0.000  1.07  0.00  0.00     0     0    58.4  0.00  0.00  0.91  3.55  3.44  2.76  1.69  1.95  0.72  0.00  0.00  0.00  0.00     0     0     0
 1984 039    78    70  26.0     3  1.61  2833  1332     0   901  4165     0   0.0 0.000     0     0 0.000 0.000 0.403 0.000  1.06  0.00  0.00     0     0    56.9  0.00  0.00  0.91  3.53  3.60  2.88  1.75  1.99  0.74  0.00  0.00  0.00  0.00     0     0     0
 1984 040    79    71  27.0     3  1.59  2866  1403     0   932  4269     0   0.0 0.000     0     0 0.000 0.000 0.403 0.000  1.04  0.00  0.00     0     0    55.5  0.00  0.00  0.92  3.51  3.77  3.02  1.82  2.03  0.75  0.00  0.00  0.00  0.00     0     0     0
 1984 041    80    72  27.0     3  1.57  2898  1482     0   951  4380     0   0.0 0.000     0     0 0.000 0.000 0.398 0.000  1.02  0.00  0.00     0     0    54.1  0.00  0.00  0.92  3.60  3.87  3.09  1.85  2.05  0.76  0.00  0.00  0.00  0.00     0     0     0
 1984 042    81    73  27.0     3  1.54  2928  1561     0   970  4489     0   0.0 0.000     0     0 0.000 0.000 0.393 0.000  1.01  0.00  0.00     0     0    52.7  0.00  0.00  0.93  3.70  3.97  3.17  1.89  2.07  0.76  0.01  0.00  0.00  0.00     0     0     0
 1984 043    82    74  28.0     3  1.52  2954  1633     0   993  4586     0   0.0 0.000     0     0 0.000 0.000 0.404 0.000  1.00  0.00  0.00     0     0    51.3  0.00  0.00  0.93  3.82  4.00  3.27  1.93  2.10  0.77  0.01  0.00  0.00  0.00     0     0     0
 1984 044    83    75  28.0     3  1.49  2977  1701     0   996  4678     0   0.0 0.000     0     0 0.000 0.000 0.409 0.000  0.99  0.00  0.00     0     0    49.9  0.00  0.00  0.94  3.84  4.00  3.28  1.94  2.09  0.77  0.01  0.00  0.00  0.00     0     0     0
 1984 045    84    76  29.0     3  1.46  2999  1772     0  1015  4771     0   0.0 0.000     0     0 0.000 0.000 0.412 0.000  0.98  0.00  0.00     0     0    48.6  0.00  0.00  0.94  3.93  4.00  3.35  1.97  2.11  0.78  0.01  0.00  0.00  0.00     0     0     0
 1984 046    85    77  29.0     3  1.43  3021  1845     0  1020  4866     0   0.0 0.000     0     0 0.000 0.000 0.414 0.000  0.97  0.00  0.00     0     0    47.3  0.00  0.00  0.95  3.96  4.00  3.38  1.98  2.12  0.78  0.01  0.00  0.00  0.00     0     0     0
 1984 047    86    78  29.0     3  1.40  3041  1913     0  1051  4954     0   0.0 0.000     0     0 0.000 0.000 0.418 0.000  0.96  0.00  0.00     0     0    46.0  0.00  0.00  0.95  4.00  4.00  3.49  2.04  2.15  0.79  0.02  0.00  0.00  0.00     0     0     0
 1984 048    87    79  30.0     3  1.37  3059  1979     0  1071  5038     0   0.0 0.000     0     0 0.000 0.000 0.422 0.000  0.95  0.00  0.00     0     0    44.7  0.00  0.00  0.95  4.00  4.00  3.58  2.08  2.17  0.80  0.02  0.00  0.00  0.00     0     0     0
 1984 049    88    80  30.0     3  1.34  3077  2044     0  1091  5120     0   0.0 0.000     0     0 0.000 0.000 0.424 0.000  0.94  0.00  0.00     0     0    43.5  0.00  0.00  0.96  4.00  4.00  3.65  2.12  2.19  0.81  0.03  0.00  0.00  0.00     0     0     0
 1984 050    89    81  30.0     4  1.29  3045  1728     0  1106  5178     0   0.0 0.000   405     0 0.000 0.000 0.425 0.000  1.02  0.00  0.08     0   405    42.4  0.00  0.00  0.96  4.00  4.00  3.72  2.15  2.21  0.82  0.03  0.00  0.00  0.00     0     0     0
 1984 051    90    82  30.0     4  1.25  3011  1758     0  1116  5250     0   0.0 0.000   480     0 0.000 0.000 0.294 0.000  1.03  0.00  0.09     0   480    41.6  0.00  0.00  0.97  4.00  4.00  3.76  2.16  2.22  0.82  0.04  0.00  0.00  0.00     0     0     0
 1984 052    91    83  30.0     4  1.22  2975  1791     0  1133  5331     0   0.0 0.000   564     0 0.000 0.000 0.268 0.000  1.03  0.00  0.11     0   564    41.0  0.00  0.00  0.97  3.98  4.00  3.83  2.20  2.24  0.83  0.04  0.00  0.00  0.00     0     0     0
 1984 053    92    84  30.0     4  1.19  2937  1826     0  1161  5415     0   0.0 0.000   651     0 0.000 0.000 0.244 0.000  1.04  0.00  0.12     0   651    40.4  0.00  0.00  0.98  3.96  4.00  3.96  2.26  2.27  0.84  0.05  0.00  0.00  0.00     0     0     0
 1984 054    93    85  30.0     4  1.16  2897  1860     0  1162  5492     0   0.0 0.000   735     0 0.000 0.000 0.223 0.000  1.05  0.00  0.13     0   735    39.9  0.00  0.00  0.98  3.94  4.00  3.97  2.27  2.27  0.84  0.05  0.00  0.00  0.00     0     0     0
 1984 055    94    86  30.0     4  1.13  2854  1899     0  1171  5585     0   0.0 0.000   832     0 0.000 0.000 0.201 0.000  1.05  0.00  0.15     0   832    39.5  0.00  0.00  0.98  3.99  4.00  4.00  2.28  2.28  0.84  0.06  0.00  0.00  0.00     0     0     0
 1984 056    95    87  30.0     4  1.10  2809  1939     0  1176  5682     0   0.0 0.000   934     0 0.000 0.000 0.192 0.000  1.06  0.00  0.16     0   934    39.1  0.00  0.00  0.99  4.00  4.00  4.00  2.29  2.28  0.84  0.06  0.00  0.00  0.00     0     0     0
 1984 057    96    88  30.0     4  1.07  2761  1981     0  1179  5782     0   0.0 0.000  1039     0 0.000 0.000 0.184 0.000  1.07  0.00  0.18     0  1039    38.9  0.00  0.00  0.99  4.00  4.00  4.00  2.30  2.28  0.84  0.06  0.00  0.00  0.00     0     0     0
 1984 058    97    89  30.0     4  1.05  2712  2026     0  1190  5887     0   0.0 0.000  1149     0 0.000 0.000 0.176 0.000  1.07  0.00  0.20     0  1149    38.7  0.00  0.00  1.00  3.98  4.00  4.00  2.32  2.29  0.85  0.07  0.00  0.00  0.00     0     0     0
 1984 059    98    90  30.0     4  1.03  2659  2069     0  1191  5986     0   0.0 0.000  1258     0 0.000 0.000 0.169 0.000  1.08  0.00  0.21     0  1258    38.7  0.00  0.00  1.00  4.00  4.00  4.00  2.32  2.29  0.84  0.07  0.00  0.00  0.00     0     0     0
 1984 060    99    91  30.0     4  1.01  2605  2096     0  1191  6027     0   0.0 0.000  1326     0 0.000 0.000 0.161 0.000  1.09  0.00  0.22     0  1326    38.7  0.00  0.00  1.01  4.00  4.00  4.00  2.32  2.29  0.84  0.07  0.00  0.00  0.00     0     0     0
 1984 061   100    92  30.0     4  0.99  2548  2142     0  1193  6131     0   0.0 0.000  1441     0 0.000 0.000 0.152 0.000  1.10  0.00  0.23     0  1441    38.8  0.00  0.00  1.01  4.00  4.00  4.00  2.33  2.28  0.84  0.07  0.00  0.00  0.00     0     0     0
 1984 062   101    93  30.0     5  0.96  2546  2142    78  1200  6207   862   9.1 0.013  1519     6 0.000 0.000 0.248 0.000  1.10  5.16  0.24     0  1519    37.8  0.00  0.00  1.01  4.00  4.00  4.00  2.34  2.29  0.84  0.08  0.00  0.00  0.00     0     0     0
 1984 063   102    94  30.0     5  0.94  2543  2142   130  1213  6256   862  15.1 0.021  1571     6 0.000 0.000 0.252 0.000  1.09  8.28  0.25     0  1571    36.8  0.00  0.00  1.02  4.00  4.00  4.00  2.36  2.30  0.85  0.08  0.00  0.00  0.00     0     0     0
 1984 064   103    95  30.0     5  0.91  2540  2142   182  1225  6305   862  21.1 0.029  1622     6 0.000 0.000 0.245 0.000  1.09 11.20  0.26     0  1622    35.8  0.00  0.00  1.02  4.00  4.00  4.00  2.38  2.31  0.85  0.09  0.00  0.00  0.00     0     0     0
 1984 065   104    96  30.0     5  0.89  2538  2142   233  1247  6354   862  27.1 0.037  1674     6 0.000 0.000 0.237 0.000  1.09 13.95  0.26     0  1674    34.9  0.00  0.00  1.03  4.00  4.00  4.00  2.42  2.33  0.86  0.10  0.00  0.00  0.00     0     0     0
 1984 066   105    97  30.0     5  0.86  2535  2142   285  1269  6403   862  33.1 0.045  1726     6 0.000 0.000 0.231 0.000  1.08 16.53  0.27     0  1726    34.0  0.00  0.00  1.03  3.98  4.00  4.00  2.47  2.36  0.87  0.11  0.00  0.00  0.00     0     0     0
 1984 067   106    98  30.0     5  0.84  2533  2142   337  1292  6453   862  39.1 0.052  1778     6 0.000 0.000 0.224 0.000  1.07 18.95  0.28     0  1778    33.2  0.00  0.00  1.03  3.96  4.00  4.00  2.52  2.39  0.88  0.13  0.00  0.00  0.00     0     0     0
 1984 068   107    99  30.0     5  0.82  2530  2142   389  1307  6502   862  45.1 0.060  1829     6 0.000 0.000 0.218 0.000  1.07 21.25  0.28     0  1829    32.4  0.00  0.00  1.04  3.94  4.00  4.00  2.55  2.41  0.89  0.14  0.00  0.00  0.00     0     0     0
 1984 069   108   100  30.0     5  0.80  2528  2142   440  1323  6551   862  51.1 0.067  1881     6 0.000 0.000 0.213 0.000  1.06 23.41  0.29     0  1881    31.6  0.00  0.00  1.04  4.00  4.00  4.00  2.58  2.42  0.89  0.15  0.00  0.00  0.00     0     0     0
 1984 070   109   101  30.0     5  0.78  2525  2142   492  1339  6600   862  57.1 0.075  1933     6 0.000 0.000 0.204 0.000  1.06 25.46  0.29     0  1933    30.8  0.00  0.00  1.05  4.00  4.00  4.00  2.61  2.44  0.90  0.16  0.00  0.00  0.00     0     0     0
 1984 071   110   102  30.0     5  0.76  2523  2142   544  1355  6649   862  63.1 0.082  1984     6 0.000 0.000 0.198 0.000  1.05 27.40  0.30     0  1984    30.1  0.00  0.00  1.05  3.98  4.00  4.00  2.64  2.46  0.90  0.17  0.00  0.00  0.00     0     0     0
 1984 072   111   103  30.0     5  0.74  2520  2142   596  1374  6699   862  69.1 0.089  2036     6 0.000 0.000 0.197 0.000  1.04 29.25  0.30     0  2036    29.4  0.00  0.00  1.06  3.96  4.00  4.00  2.68  2.48  0.91  0.18  0.00  0.00  0.00     0     0     0
 1984 073   112   104  30.0     5  0.72  2518  2142   647  1394  6748   862  75.1 0.096  2088     6 0.000 0.000 0.195 0.000  1.04 31.00  0.31     0  2088    28.7  0.00  0.00  1.06  4.00  4.00  4.00  2.72  2.50  0.92  0.19  0.00  0.00  0.00     0     0     0
 1984 074   113   105  30.0     5  0.70  2515  2142   699  1402  6797   862  81.1 0.103  2140     6 0.000 0.000 0.192 0.000  1.03 32.67  0.31     0  2140    28.0  0.00  0.00  1.07  4.00  4.00  4.00  2.73  2.51  0.92  0.20  0.00  0.00  0.00     0     0     0
 1984 075   114   106  30.0     5  0.69  2513  2142   751  1412  6846   862  87.1 0.110  2191     6 0.000 0.000 0.190 0.000  1.02 34.26  0.32     0  2191    27.4  0.00  0.00  1.07  4.00  4.00  4.00  2.75  2.52  0.93  0.20  0.00  0.00  0.00     0     0     0
 1984 076   115   107  30.0     5  0.67  2510  2142   802  1419  6895   862  93.1 0.116  2243     6 0.000 0.000 0.188 0.000  1.02 35.77  0.33     0  2243    26.8  0.00  0.00  1.08  4.00  4.00  4.00  2.77  2.52  0.93  0.21  0.00  0.00  0.00     0     0     0
 1984 077   116   108  30.0     5  0.66  2508  2142   854  1427  6945   862  99.1 0.123  2295     6 0.000 0.000 0.186 0.000  1.01 37.22  0.33     0  2295    26.2  0.00  0.00  1.08  4.00  4.00  4.00  2.78  2.53  0.93  0.22  0.00  0.00  0.00     0     0     0
 1984 078   117   109  30.0     5  0.64  2505  2142   906  1433  6994   862 105.1 0.130  2347     6 0.000 0.000 0.184 0.000  1.00 38.60  0.34     0  2347    25.6  0.00  0.00  1.09  4.00  4.00  4.00  2.79  2.53  0.93  0.22  0.00  0.00  0.00     0     0     0
 1984 079   118   110  30.0     5  0.63  2503  2142   958  1437  7043   862 111.1 0.136  2398     6 0.000 0.000 0.182 0.000  0.99 39.93  0.34     0  2398    25.0  0.00  0.00  1.09  4.00  4.00  4.00  2.79  2.53  0.93  0.23  0.00  0.00  0.00     0     0     0
 1984 080   119   111  30.0     5  0.61  2500  2142  1009  1444  7092   862 117.1 0.142  2450     6 0.000 0.000 0.180 0.000  0.98 41.19  0.35     0  2450    24.5  0.00  0.00  1.10  4.00  4.00  4.00  2.81  2.53  0.93  0.23  0.00  0.00  0.00     0     0     0
 1984 081   120   112  30.0     5  0.60  2498  2142  1061  1457  7141   862 123.1 0.149  2502     6 0.000 0.000 0.178 0.000  0.98 42.41  0.35     0  2502    24.0  0.00  0.00  1.10  3.98  4.00  4.00  2.83  2.55  0.94  0.24  0.00  0.00  0.00     0     0     0
 1984 082   121   113  30.0     5  0.59  2495  2142  1113  1469  7191   862 129.1 0.155  2553     6 0.000 0.000 0.177 0.000  0.97 43.58  0.36     0  2553    23.5  0.00  0.00  1.10  4.00  4.00  4.00  2.85  2.56  0.94  0.25  0.00  0.00  0.00     0     0     0
 1984 083   122   114  30.0     5  0.57  2493  2142  1164  1478  7240   862 135.1 0.161  2605     6 0.000 0.000 0.175 0.000  0.96 44.70  0.36     0  2605    23.0  0.00  0.00  1.10  4.00  4.00  4.00  2.87  2.57  0.95  0.26  0.00  0.00  0.00     0     0     0
 1984 084   123   115  30.0     5  0.56  2490  2142  1216  1487  7289   862 141.1 0.167  2657     6 0.000 0.000 0.174 0.000  0.95 45.77  0.36     0  2657    22.5  0.00  0.00  1.10  4.00  4.00  4.00  2.88  2.57  0.95  0.26  0.00  0.00  0.00     0     0     0
 1984 085   124   116  30.0     5  0.55  2488  2142  1268  1495  7338   862 147.1 0.173  2709     6 0.000 0.000 0.172 0.000  0.94 46.81  0.37     0  2709    22.0  0.00  0.00  1.10  4.00  4.00  4.00  2.90  2.58  0.95  0.27  0.00  0.00  0.00     0     0     0
 1984 086   125   117  30.0     5  0.54  2485  2142  1320  1506  7388   862 153.1 0.179  2760     6 0.000 0.000 0.170 0.000  0.93 47.81  0.37     0  2760    21.6  0.00  0.00  1.10  4.00  4.00  4.00  2.92  2.59  0.95  0.28  0.00  0.00  0.00     0     0     0
 1984 087   126   118  30.0     5  0.53  2483  2142  1371  1517  7437   862 159.1 0.184  2812     6 0.000 0.000 0.169 0.000  0.93 48.77  0.38     0  2812    21.2  0.00  0.00  1.10  4.00  4.00  4.00  2.94  2.60  0.96  0.28  0.00  0.00  0.00     0     0     0
 1984 088   127   119  30.0     5  0.51  2480  2142  1423  1521  7486   862 165.1 0.190  2864     6 0.000 0.000 0.167 0.000  0.92 49.69  0.38     0  2864    20.7  0.00  0.00  1.10  4.00  4.00  4.00  2.94  2.60  0.96  0.29  0.00  0.00  0.00     0     0     0
 1984 089   128   120  30.0     5  0.50  2478  2142  1475  1525  7535   862 171.1 0.196  2915     6 0.000 0.000 0.166 0.000  0.91 50.58  0.39     0  2915    20.3  0.00  0.00  1.10  4.00  4.00  4.00  2.95  2.60  0.96  0.29  0.00  0.00  0.00     0     0     0
 1984 090   129   121  30.0     5  0.49  2475  2142  1526  1531  7584   862 177.1 0.201  2967     6 0.000 0.000 0.164 0.000  0.90 51.44  0.39     0  2967    19.9  0.00  0.00  1.10  4.00  4.00  4.00  2.96  2.60  0.96  0.29  0.00  0.00  0.00     0     0     0
 1984 091   130   122  30.0     5  0.48  2473  2142  1578  1537  7634   862 183.1 0.207  3019     6 0.000 0.000 0.163 0.000  0.89 52.28  0.40     0  3019    19.5  0.00  0.00  1.10  4.00  4.00  4.00  2.97  2.61  0.96  0.30  0.00  0.00  0.00     0     0     0
 1984 092   131   123  30.0     5  0.47  2470  2142  1630  1543  7683   862 189.1 0.212  3071     6 0.000 0.000 0.162 0.000  0.88 53.08  0.40     0  3071    19.2  0.00  0.00  1.10  4.00  4.00  4.00  2.98  2.61  0.96  0.30  0.00  0.00  0.00     0     0     0
 1984 093   132   124  30.0     5  0.46  2468  2142  1682  1543  7732   862 195.1 0.217  3122     6 0.000 0.000 0.162 0.000  0.87 53.86  0.40     0  3122    18.8  0.00  0.00  1.10  3.98  4.00  4.00  2.98  2.61  0.96  0.30  0.00  0.00  0.00     0     0     0
 1984 094   133   125  30.0     5  0.45  2465  2142  1733  1548  7781   862 201.1 0.223  3174     6 0.000 0.000 0.161 0.000  0.86 54.61  0.41     0  3174    18.4  0.00  0.00  1.10  3.96  4.00  4.00  3.00  2.61  0.96  0.31  0.00  0.00  0.00     0     0     0
 1984 095   134   126  30.0     5  0.45  2463  2142  1785  1551  7831   862 207.1 0.228  3226     6 0.000 0.000 0.161 0.000  0.85 55.34  0.41     0  3226    18.1  0.00  0.00  1.10  3.94  4.00  4.00  3.00  2.61  0.96  0.31  0.00  0.00  0.00     0     0     0
 1984 096   135   127  30.0     5  0.44  2460  2142  1837  1555  7880   862 213.1 0.233  3277     6 0.000 0.000 0.161 0.000  0.84 56.04  0.42     0  3277    17.7  0.00  0.00  1.10  3.92  4.00  4.00  3.01  2.62  0.96  0.31  0.00  0.00  0.00     0     0     0
 1984 097   136   128  30.0     5  0.43  2458  2142  1888  1554  7929   862 219.1 0.238  3329     6 0.000 0.000 0.162 0.000  0.83 56.72  0.42     0  3329    17.4  0.00  0.00  1.10  3.90  4.00  4.00  3.01  2.61  0.96  0.31  0.00  0.00  0.00     0     0     0
 1984 098   137   129  30.0     5  0.42  2456  2142  1940  1553  7978   862 225.1 0.243  3381     6 0.000 0.000 0.162 0.000  0.82 57.39  0.42     0  3381    17.1  0.00  0.00  1.10  3.97  4.00  4.00  3.01  2.61  0.95  0.31  0.00  0.00  0.00     0     0     0
 1984 099   138   130  30.0     5  0.41  2453  2142  1992  1551  8028   862 231.1 0.248  3433     6 0.000 0.000 0.162 0.000  0.81 58.03  0.43     0  3433    16.7  0.00  0.00  1.10  4.00  4.00  3.99  3.00  2.60  0.95  0.31  0.00  0.00  0.00     0     0     0
 1984 100   139   131  30.0     5  0.40  2451  2142  2044  1554  8077   862 237.1 0.253  3484     6 0.000 0.000 0.161 0.000  0.80 58.65  0.43     0  3484    16.4  0.00  0.00  1.10  4.00  4.00  4.00  3.00  2.60  0.95  0.32  0.00  0.00  0.00     0     0     0
 1984 101   140   132  30.0     5  0.39  2448  2142  2095  1550  8126   862 243.1 0.258  3536     6 0.000 0.000 0.162 0.000  0.79 59.26  0.44     0  3536    16.1  0.00  0.00  1.10  3.98  4.00  4.00  3.00  2.59  0.95  0.32  0.00  0.00  0.00     0     0     0
 1984 102   141   133  30.0     5  0.39  2446  2142  2147  1556  8176   862 249.1 0.263  3588     6 0.000 0.000 0.163 0.000  0.78 59.84  0.44     0  3588    15.8  0.00  0.00  1.10  4.00  4.00  4.00  3.01  2.60  0.95  0.32  0.00  0.00  0.00     0     0     0
 1984 103   142   134  30.0     5  0.38  2443  2142  2199  1556  8225   862 255.1 0.267  3639     6 0.000 0.000 0.164 0.000  0.77 60.41  0.44     0  3639    15.5  0.00  0.00  1.10  4.00  4.00  4.00  3.00  2.59  0.95  0.32  0.00  0.00  0.00     0     0     0
 1984 104   143   135  30.0     5  0.37  2441  2142  2250  1555  8274   862 261.1 0.272  3691     6 0.000 0.000 0.166 0.000  0.76 60.97  0.45     0  3691    15.2  0.00  0.00  1.10  3.98  4.00  4.00  3.00  2.59  0.95  0.32  0.00  0.00  0.00     0     0     0
 1984 105   144   136  30.0     5  0.36  2438  2142  2302  1554  8323   862 267.1 0.277  3743     6 0.000 0.000 0.168 0.000  0.74 61.51  0.45     0  3743    14.9  0.00  0.00  1.10  3.99  4.00  4.00  3.00  2.58  0.94  0.32  0.00  0.00  0.00     0     0     0
 1984 106   145   137  30.0     5  0.36  2438  2142  2302  1554  8323   862 267.1 0.277  3743     6 0.000 0.000 0.168 0.000  0.74 61.51  0.45     0  3743    14.9  0.00  0.00  1.10  4.00  4.00  4.00  3.00  2.58  0.94  0.32  0.00  0.00  0.00     0     0     0
 1984 107   146   138  30.0     5  0.36  2438  2142  2302  1554  8323   862 267.1 0.277  3743     6 0.000 0.000 0.168 0.000  0.74 61.51  0.45     0  3743    14.9  0.00  0.00  1.10  3.98  4.00  4.00  3.00  2.57  0.94  0.32  0.00  0.00  0.00     0     0     0
 1984 108   147   139  30.0     5  0.36  2438  2142  2302  1554  8323   862 267.1 0.277  3743     6 0.000 0.000 0.168 0.000  0.74 61.51  0.45     0  3743    14.9  0.00  0.00  1.10  4.00  4.00  4.00  2.99  2.57  0.94  0.32  0.00  0.00  0.00     0     0     0
 1984 109   148   140  30.0     5  0.36  2438  2142  2302  1554  8323   862 267.1 0.277  3743     6 0.000 0.000 0.168 0.000  0.74 61.51  0.45     0  3743    14.9  0.00  0.00  0.05  4.00  4.00  4.00  2.99  2.57  0.94  0.32  0.00  0.00  0.00     0     0     0

*RUN   2        :  X304C 50 kg N/ha        
 MODEL          : MZCER020 - MAIZE     
 EXPERIMENT     : IBWA8301 MZ     IBWA8301MZ N X VAR WAPIO, IBSNAT EXP.1983-4   
 TREATMENT  2   :  X304C 50 kg N/ha        

@YEAR DOY   DAS   DAP  L#SD  GSTD  LAID  LWAD  SWAD  GWAD  RWAD  CWAD  G#AD  GWGD  HIAD  PWAD  P#AD  WSPD  WSGD  NSTD  EWSD  LN%D  SH%D  HIPD  PWDD  PWTD    SLAD  CHTD  CWID  RDPD  RL1D  RL2D  RL3D  RL4D  RL5D  RL6D  RL7D  RL8D  RL9D  RL10  CDAD  LDAD  SDAD
 1983 334     8     0   0.0     0  0.00     0     0     0     0     0     0   0.0 0.000     0     0 0.000 0.000 0.000 0.000  0.00  0.00  0.00     0     0     0.0  0.00  0.00  0.05  0.00  0.00  0.00  0.00  0.00  0.00  0.00  0.00  0.00  0.00     0     0     0
 1983 335     9     1   0.0     0  0.00     0     0     0     0     0     0   0.0 0.000     0     0 0.000 0.000 0.000 0.000  0.00  0.00  0.00     0     0     0.0  0.00  0.00  0.08  0.00  0.00  0.00  0.00  0.00  0.00  0.00  0.00  0.00  0.00     0     0     0
 1983 336    10     2   0.0     0  0.00     0     0     0     0     0     0   0.0 0.000     0     0 0.000 0.000 0.000 0.000  0.00  0.00  0.00     0     0     0.0  0.00  0.00  0.10  0.00  0.00  0.00  0.00  0.00  0.00  0.00  0.00  0.00  0.00     0     0     0
 1983 337    11     3   0.0     0  0.00     0     0     0     0     0     0   0.0 0.000     0     0 0.000 0.000 0.000 0.000  0.00  0.00  0.00     0     0     0.0  0.00  0.00  0.13  0.00  0.00  0.00  0.00  0.00  0.00  0.00  0.00  0.00  0.00     0     0     0
 1983 338    12     4   0.0     0  0.00     0     0     0     0     0     0   0.0 0.000     0     0 0.000 0.000 0.000 0.000  0.00  0.00  0.00     0     0     0.0  0.00  0.00  0.15  0.00  0.00  0.00  0.00  0.00  0.00  0.00  0.00  0.00  0.00     0     0     0
 1983 339    13     5   0.0     0  0.00     0     0     0     0     0     0   0.0 0.000     0     0 0.000 0.000 0.000 0.000  0.00  0.00  0.00     0     0     0.0  0.00  0.00  0.18  0.00  0.00  0.00  0.00  0.00  0.00  0.00  0.00  0.00  0.00     0     0     0
 1983 340    14     6   2.0     1  0.00    12    12     0    12    23     0   0.0 0.000     0     0 0.000 0.000 0.012 0.000  4.40  0.00  0.00     0     0    31.0  0.00  0.00  0.19  0.23  0.12  0.01  0.00  0.00  0.00  0.00  0.00  0.00  0.00     0     0     0
 1983 341    15     7   2.0     1  0.01    12    12     0    12    23     0   0.0 0.000     0     0 0.000 0.000 0.015 0.000  4.52  0.00  0.00     0     0    62.4  0.00  0.00  0.21  0.23  0.12  0.01  0.00  0.00  0.00  0.00  0.00  0.00  0.00     0     0     0
 1983 342    16     8   3.0     1  0.01    12    12     0    13    23     0   0.0 0.000     0     0 0.000 0.000 0.000 0.000  4.49  0.00  0.00     0     0    96.4  0.00  0.00  0.22  0.24  0.13  0.01  0.00  0.00  0.00  0.00  0.00  0.00  0.00     0     0     0
 1983 343    17     9   3.0     1  0.02    12    12     0    14    23     0   0.0 0.000     0     0 0.000 0.000 0.000 0.000  4.46  0.00  0.00     0     0   136.4  0.00  0.00  0.24  0.25  0.14  0.02  0.00  0.00  0.00  0.00  0.00  0.00  0.00     0     0     0
 1983 344    18    10   4.0     1  0.03    12    12     0    15    23     0   0.0 0.000     0     0 0.000 0.000 0.000 0.000  4.43  0.00  0.00     0     0   264.4  0.00  0.00  0.25  0.26  0.15  0.02  0.00  0.00  0.00  0.00  0.00  0.00  0.00     0     0     0
 1983 345    19    11   4.0     1  0.04    12    12     0    17    24     0   0.0 0.000     0     0 0.000 0.000 0.000 0.000  4.41  0.00  0.00     0     0   338.5  0.00  0.00  0.26  0.28  0.17  0.03  0.00  0.00  0.00  0.00  0.00  0.00  0.00     0     0     0
 1983 346    20    12   4.0     1  0.06    19    12     0    18    31     0   0.0 0.000     0     0 0.000 0.000 0.000 0.000  4.39  0.00  0.00     0     0   310.9  0.00  0.00  0.27  0.29  0.18  0.03  0.00  0.00  0.00  0.00  0.00  0.00  0.00     0     0     0
 1983 347    21    13   5.0     1  0.08    27    12     0    19    39     0   0.0 0.000     0     0 0.000 0.000 0.000 0.000  4.36  0.00  0.00     0     0   288.7  0.00  0.00  0.28  0.29  0.19  0.03  0.00  0.00  0.00  0.00  0.00  0.00  0.00     0     0     0
 1983 348    22    14   5.0     1  0.09    34    12     0    22    46     0   0.0 0.000     0     0 0.000 0.000 0.000 0.000  4.34  0.00  0.00     0     0   275.9  0.00  0.00  0.29  0.31  0.22  0.05  0.00  0.00  0.00  0.00  0.00  0.00  0.00     0     0     0
 1983 349    23    15   5.0     1  0.11    43    12     0    24    55     0   0.0 0.000     0     0 0.000 0.000 0.000 0.000  4.32  0.00  0.00     0     0   262.9  0.00  0.00  0.30  0.31  0.23  0.05  0.00  0.00  0.00  0.00  0.00  0.00  0.00     0     0     0
 1983 350    24    16   6.0     1  0.14    54    12     0    28    66     0   0.0 0.000     0     0 0.000 0.000 0.000 0.000  4.30  0.00  0.00     0     0   251.1  0.00  0.00  0.31  0.34  0.27  0.07  0.00  0.00  0.00  0.00  0.00  0.00  0.00     0     0     0
 1983 351    25    17   6.0     1  0.16    65    12     0    33    77     0   0.0 0.000     0     0 0.000 0.000 0.000 0.000  4.28  0.00  0.00     0     0   241.5  0.00  0.00  0.32  0.39  0.32  0.09  0.00  0.00  0.00  0.00  0.00  0.00  0.00     0     0     0
 1983 352    26    18   6.0     1  0.18    78    12     0    40    90     0   0.0 0.000     0     0 0.000 0.000 0.000 0.000  4.26  0.00  0.00     0     0   232.6  0.00  0.00  0.33  0.42  0.38  0.12  0.00  0.00  0.00  0.00  0.00  0.00  0.00     0     0     0
 1983 353    27    19   7.0     1  0.21    93    12     0    52   105     0   0.0 0.000     0     0 0.000 0.000 0.000 0.000  4.24  0.00  0.00     0     0   224.5  0.00  0.00  0.34  0.50  0.49  0.17  0.01  0.00  0.00  0.00  0.00  0.00  0.00     0     0     0
 1983 354    28    20   7.0     1  0.24   110    12     0    63   121     0   0.0 0.000     0     0 0.000 0.000 0.000 0.000  4.22  0.00  0.00     0     0   217.0  0.00  0.00  0.34  0.58  0.58  0.22  0.01  0.00  0.00  0.00  0.00  0.00  0.00     0     0     0
 1983 355    29    21   7.0     1  0.27   129    12     0    71   140     0   0.0 0.000     0     0 0.000 0.000 0.000 0.000  4.19  0.00  0.00     0     0   209.9  0.00  0.00  0.36  0.63  0.66  0.26  0.02  0.00  0.00  0.00  0.00  0.00  0.00     0     0     0
 1983 356    30    22   8.0     1  0.31   153    12     0    85   164     0   0.0 0.000     0     0 0.000 0.000 0.000 0.000  4.17  0.00  0.00     0     0   202.6  0.00  0.00  0.38  0.70  0.78  0.33  0.03  0.00  0.00  0.00  0.00  0.00  0.00     0     0     0
 1983 357    31    23   8.0     1  0.36   182    12     0    91   194     0   0.0 0.000     0     0 0.000 0.000 0.000 0.000  4.14  0.00  0.00     0     0   195.4  0.00  0.00  0.39  0.72  0.82  0.36  0.04  0.00  0.00  0.00  0.00  0.00  0.00     0     0     0
 1983 358    32    24   8.0     1  0.41   217    12     0    96   229     0   0.0 0.000     0     0 0.000 0.000 0.000 0.000  4.12  0.00  0.00     0     0   188.4  0.00  0.00  0.41  0.74  0.86  0.38  0.05  0.00  0.00  0.00  0.00  0.00  0.00     0     0     0
 1983 359    33    25   9.0     1  0.47   256    12     0   103   267     0   0.0 0.000     0     0 0.000 0.000 0.000 0.000  4.09  0.00  0.00     0     0   182.0  0.00  0.00  0.43  0.76  0.90  0.42  0.06  0.00  0.00  0.00  0.00  0.00  0.00     0     0     0
 1983 360    34    26   9.0     1  0.53   299    12     0   110   311     0   0.0 0.000     0     0 0.000 0.000 0.000 0.000  4.07  0.00  0.00     0     0   176.2  0.00  0.00  0.45  0.78  0.95  0.45  0.08  0.00  0.00  0.00  0.00  0.00  0.00     0     0     0
 1983 361    35    27  10.0     1  0.59   345    12     0   125   356     0   0.0 0.000     0     0 0.000 0.000 0.000 0.000  4.04  0.00  0.00     0     0   171.0  0.00  0.00  0.47  0.82  1.06  0.53  0.12  0.00  0.00  0.00  0.00  0.00  0.00     0     0     0
 1983 362    36    28  10.0     1  0.69   386    12     0   132   398     0   0.0 0.000     0     0 0.000 0.000 0.000 0.000  4.02  0.00  0.00     0     0   178.4  0.00  0.00  0.48  0.81  1.11  0.56  0.14  0.00  0.00  0.00  0.00  0.00  0.00     0     0     0
 1983 363    37    29  10.0     1  0.79   462    12     0   145   474     0   0.0 0.000     0     0 0.000 0.000 0.000 0.000  3.99  0.00  0.00     0     0   171.9  0.00  0.00  0.50  0.81  1.19  0.63  0.17  0.01  0.00  0.00  0.00  0.00  0.00     0     0     0
 1983 364    38    30  11.0     1  0.90   541    12     0   158   553     0   0.0 0.000     0     0 0.000 0.000 0.000 0.000  3.97  0.00  0.00     0     0   166.2  0.00  0.00  0.51  0.88  1.26  0.68  0.22  0.02  0.00  0.00  0.00  0.00  0.00     0     0     0
 1983 365    39    31  11.0     1  1.01   629    12     0   173   640     0   0.0 0.000     0     0 0.000 0.000 0.000 0.000  3.94  0.00  0.00     0     0   161.1  0.00  0.00  0.53  0.95  1.33  0.74  0.27  0.03  0.00  0.00  0.00  0.00  0.00     0     0     0
 1984 001    40    32  12.0     1  1.13   723    12     0   189   734     0   0.0 0.000     0     0 0.000 0.000 0.000 0.000  3.91  0.00  0.00     0     0   156.4  0.00  0.00  0.55  1.02  1.38  0.79  0.34  0.06  0.00  0.00  0.00  0.00  0.00     0     0     0
 1984 002    41    33  12.0     2  1.26   832    12     0   215   843     0   0.0 0.000     0     0 0.000 0.000 0.000 0.000  3.68  0.00  0.00     0     0   151.9  0.00  0.00  0.57  1.02  1.38  0.85  0.51  0.15  0.00  0.00  0.00  0.00  0.00     0     0     0
 1984 003    42    34  12.0     2  1.36   911    12     0   228   923     0   0.0 0.000     0     0 0.000 0.000 0.030 0.000  3.57  0.00  0.00     0     0   148.9  0.00  0.00  0.58  1.01  1.39  0.85  0.61  0.23  0.00  0.00  0.00  0.00  0.00     0     0     0
 1984 004    43    35  13.0     2  1.46  1003    12     0   246  1014     0   0.0 0.000     0     0 0.000 0.000 0.036 0.000  3.40  0.00  0.00     0     0   145.9  0.00  0.00  0.59  1.00  1.40  0.86  0.72  0.34  0.00  0.00  0.00  0.00  0.00     0     0     0
 1984 005    44    36  13.0     2  1.56  1089    12     0   262  1100     0   0.0 0.000     0     0 0.000 0.000 0.049 0.000  3.27  0.00  0.00     0     0   143.1  0.00  0.00  0.61  1.00  1.41  0.87  0.80  0.44  0.00  0.00  0.00  0.00  0.00     0     0     0
 1984 006    45    37  14.0     3  1.66  1191    12     0   306  1203     0   0.0 0.000     0     0 0.000 0.000 0.037 0.000  3.12  0.00  0.00     0     0   139.1  0.00  0.00  0.62  1.66  1.44  0.90  0.91  0.63  0.00  0.00  0.00  0.00  0.00     0     0     0
 1984 007    46    38  14.0     3  1.76  1290    13     0   354  1303     0   0.0 0.000     0     0 0.000 0.000 0.039 0.000  3.16  0.00  0.00     0     0   136.6  0.00  0.00  0.63  3.07  1.46  0.91  0.95  0.72  0.00  0.00  0.00  0.00  0.00     0     0     0
 1984 008    47    39  14.0     3  1.87  1390    15     0   404  1405     0   0.0 0.000     0     0 0.000 0.000 0.036 0.000  2.98  0.00  0.00     0     0   134.4  0.00  0.00  0.64  3.06  1.58  1.01  1.06  1.09  0.01  0.00  0.00  0.00  0.00     0     0     0
 1984 009    48    40  15.0     3  1.97  1491    19     0   472  1511     0   0.0 0.000     0     0 0.000 0.000 0.043 0.000  3.38  0.00  0.00     0     0   132.2  0.00  0.00  0.65  4.00  1.59  1.02  1.06  1.13  0.01  0.00  0.00  0.00  0.00     0     0     0
 1984 010    49    41  15.0     3  2.08  1598    26     0   482  1624     0   0.0 0.000     0     0 0.000 0.000 0.024 0.000  3.35  0.00  0.00     0     0   130.4  0.00  0.00  0.65  4.00  1.59  1.02  1.06  1.14  0.01  0.00  0.00  0.00  0.00     0     0     0
 1984 011    50    42  15.0     3  2.20  1707    36     0   512  1744     0   0.0 0.000     0     0 0.000 0.000 0.024 0.000  3.18  0.00  0.00     0     0   128.6  0.00  0.00  0.66  4.00  1.61  1.04  1.06  1.16  0.02  0.00  0.00  0.00  0.00     0     0     0
 1984 012    51    43  16.0     3  2.30  1813    49     0   544  1863     0   0.0 0.000     0     0 0.000 0.000 0.029 0.000  3.05  0.00  0.00     0     0   127.0  0.00  0.00  0.67  4.00  1.64  1.07  1.07  1.17  0.02  0.00  0.00  0.00  0.00     0     0     0
 1984 013    52    44  16.0     3  2.42  1929    68     0   558  1997     0   0.0 0.000     0     0 0.000 0.000 0.033 0.000  2.89  0.00  0.00     0     0   125.2  0.00  0.00  0.68  4.00  1.71  1.13  1.10  1.19  0.04  0.00  0.00  0.00  0.00     0     0     0
 1984 014    53    45  17.0     3  2.53  2047    93     0   569  2140     0   0.0 0.000     0     0 0.000 0.000 0.039 0.000  2.72  0.00  0.00     0     0   123.5  0.00  0.00  0.69  4.00  1.77  1.17  1.12  1.20  0.05  0.00  0.00  0.00  0.00     0     0     0
 1984 015    54    46  17.0     3  2.63  2159   122     0   582  2281     0   0.0 0.000     0     0 0.000 0.000 0.048 0.000  2.58  0.00  0.00     0     0   121.8  0.00  0.00  0.70  4.00  1.83  1.22  1.14  1.21  0.06  0.00  0.00  0.00  0.00     0     0     0
 1984 016    55    47  17.0     3  2.73  2279   161     0   596  2439     0   0.0 0.000     0     0 0.000 0.000 0.056 0.000  2.44  0.00  0.00     0     0   119.9  0.00  0.00  0.71  4.00  1.89  1.27  1.16  1.23  0.08  0.00  0.00  0.00  0.00     0     0     0
 1984 017    56    48  18.0     3  2.82  2387   203     0   601  2590     0   0.0 0.000     0     0 0.000 0.000 0.066 0.000  2.31  0.00  0.00     0     0   118.1  0.00  0.00  0.72  4.00  1.92  1.30  1.17  1.23  0.08  0.00  0.00  0.00  0.00     0     0     0
 1984 018    57    49  18.0     3  2.89  2479   246     0   606  2725     0   0.0 0.000     0     0 0.000 0.000 0.075 0.000  2.22  0.00  0.00     0     0   116.4  0.00  0.00  0.73  4.00  1.94  1.32  1.18  1.23  0.09  0.00  0.00  0.00  0.00     0     0     0
 1984 019    58    50  19.0     3  2.97  2595   311     0   625  2906     0   0.0 0.000     0     0 0.000 0.000 0.083 0.000  2.10  0.00  0.00     0     0   114.5  0.00  0.00  0.74  4.00  2.03  1.39  1.21  1.25  0.12  0.00  0.00  0.00  0.00     0     0     0
 1984 020    59    51  19.0     3  3.04  2703   380     0   670  3083     0   0.0 0.000     0     0 0.000 0.000 0.096 0.000  1.99  0.00  0.00     0     0   112.5  0.00  0.00  0.75  4.00  2.23  1.55  1.29  1.30  0.17  0.00  0.00  0.00  0.00     0     0     0
 1984 021    60    52  19.0     3  3.10  2804   453     0   716  3257     0   0.0 0.000     0     0 0.000 0.000 0.107 0.000  1.90  0.00  0.00     0     0   110.5  0.00  0.00  0.76  4.00  2.44  1.71  1.37  1.35  0.22  0.00  0.00  0.00  0.00     0     0     0
 1984 022    61    53  20.0     3  3.16  2910   541     0   750  3451     0   0.0 0.000     0     0 0.000 0.000 0.118 0.000  1.81  0.00  0.00     0     0   108.4  0.00  0.00  0.77  4.00  2.60  1.84  1.43  1.39  0.26  0.00  0.00  0.00  0.00     0     0     0
 1984 023    62    54  20.0     3  3.19  3004   629     0   789  3633     0   0.0 0.000     0     0 0.000 0.000 0.132 0.000  1.73  0.00  0.00     0     0   106.3  0.00  0.00  0.78  4.00  2.78  1.99  1.50  1.43  0.30  0.00  0.00  0.00  0.00     0     0     0
 1984 024    63    55  21.0     3  3.23  3102   732     0   808  3834     0   0.0 0.000     0     0 0.000 0.000 0.143 0.000  1.65  0.00  0.00     0     0   104.1  0.00  0.00  0.79  3.98  2.88  2.07  1.54  1.46  0.32  0.00  0.00  0.00  0.00     0     0     0
 1984 025    64    56  21.0     3  3.25  3191   836     0   842  4027     0   0.0 0.000     0     0 0.000 0.000 0.157 0.000  1.58  0.00  0.00     0     0   101.9  0.00  0.00  0.81  3.96  3.07  2.22  1.61  1.50  0.35  0.00  0.00  0.00  0.00     0     0     0
 1984 026    65    57  21.0     3  3.26  3271   938     0   856  4209     0   0.0 0.000     0     0 0.000 0.000 0.169 0.000  1.53  0.00  0.00     0     0    99.6  0.00  0.00  0.81  4.00  3.13  2.27  1.64  1.52  0.36  0.00  0.00  0.00  0.00     0     0     0
 1984 027    66    58  22.0     3  3.25  3347  1047     0   875  4394     0   0.0 0.000     0     0 0.000 0.000 0.178 0.000  1.48  0.00  0.00     0     0    97.2  0.00  0.00  0.82  4.00  3.23  2.35  1.67  1.54  0.37  0.00  0.00  0.00  0.00     0     0     0
 1984 028    67    59  22.0     3  3.25  3420  1158     0   893  4578     0   0.0 0.000     0     0 0.000 0.000 0.187 0.000  1.43  0.00  0.00     0     0    94.9  0.00  0.00  0.83  4.00  3.32  2.43  1.71  1.56  0.38  0.00  0.00  0.00  0.00     0     0     0
 1984 029    68    60  23.0     3  3.24  3495  1283     0   902  4778     0   0.0 0.000     0     0 0.000 0.000 0.196 0.000  1.38  0.00  0.00     0     0    92.6  0.00  0.00  0.84  4.00  3.37  2.47  1.73  1.57  0.38  0.00  0.00  0.00  0.00     0     0     0
 1984 030    69    61  23.0     3  3.22  3566  1411     0   935  4977     0   0.0 0.000     0     0 0.000 0.000 0.215 0.000  1.34  0.00  0.00     0     0    90.2  0.00  0.00  0.85  4.00  3.54  2.60  1.79  1.61  0.40  0.00  0.00  0.00  0.00     0     0     0
 1984 031    70    62  23.0     3  3.17  3612  1502     0   938  5115     0   0.0 0.000     0     0 0.000 0.000 0.243 0.000  1.31  0.00  0.00     0     0    87.9  0.00  0.00  0.86  4.00  3.56  2.62  1.80  1.61  0.40  0.00  0.00  0.00  0.00     0     0     0
 1984 032    71    63  24.0     3  3.13  3662  1605     0   942  5267     0   0.0 0.000     0     0 0.000 0.000 0.252 0.000  1.28  0.00  0.00     0     0    85.5  0.00  0.00  0.87  4.00  3.58  2.64  1.80  1.61  0.40  0.00  0.00  0.00  0.00     0     0     0
 1984 033    72    64  24.0     3  3.09  3712  1715     0   947  5428     0   0.0 0.000     0     0 0.000 0.000 0.266 0.000  1.26  0.00  0.00     0     0    83.3  0.00  0.00  0.88  4.00  3.61  2.66  1.81  1.62  0.40  0.00  0.00  0.00  0.00     0     0     0
 1984 034    73    65  24.0     3  3.04  3750  1803     0   949  5553     0   0.0 0.000     0     0 0.000 0.000 0.281 0.000  1.24  0.00  0.00     0     0    81.0  0.00  0.00  0.88  4.00  3.63  2.68  1.82  1.62  0.40  0.00  0.00  0.00  0.00     0     0     0
 1984 035    74    66  25.0     3  3.03  3836  1841     0   952  5677     0   0.0 0.000     0     0 0.000 0.000 0.285 0.000  1.22  0.00  0.00     0     0    78.9  0.00  0.00  0.89  4.00  3.64  2.69  1.82  1.62  0.40  0.00  0.00  0.00  0.00     0     0     0
 1984 036    75    67  25.0     3  3.00  3900  1901     0   954  5801     0   0.0 0.000     0     0 0.000 0.000 0.287 0.000  1.20  0.00  0.00     0     0    76.9  0.00  0.00  0.90  4.00  3.66  2.70  1.83  1.62  0.40  0.00  0.00  0.00  0.00     0     0     0
 1984 037    76    68  25.0     3  2.97  3965  1986     0   976  5950     0   0.0 0.000     0     0 0.000 0.000 0.287 0.000  1.18  0.00  0.00     0     0    74.9  0.00  0.00  0.90  4.00  3.77  2.80  1.87  1.65  0.41  0.00  0.00  0.00  0.00     0     0     0
 1984 038    77    69  26.0     3  2.94  4022  2077     0   979  6099     0   0.0 0.000     0     0 0.000 0.000 0.289 0.000  1.16  0.00  0.00     0     0    73.0  0.00  0.00  0.91  4.00  3.79  2.81  1.88  1.65  0.41  0.00  0.00  0.00  0.00     0     0     0
 1984 039    78    70  26.0     3  2.90  4071  2168     0  1034  6239     0   0.0 0.000     0     0 0.000 0.000 0.292 0.000  1.14  0.00  0.00     0     0    71.1  0.00  0.00  0.91  4.00  4.00  3.03  1.98  1.72  0.44  0.00  0.00  0.00  0.00     0     0     0
 1984 040    79    71  27.0     3  2.85  4115  2259     0  1097  6374     0   0.0 0.000     0     0 0.000 0.000 0.292 0.000  1.12  0.00  0.00     0     0    69.3  0.00  0.00  0.92  4.00  4.00  3.28  2.11  1.80  0.47  0.00  0.00  0.00  0.00     0     0     0
 1984 041    80    72  27.0     3  2.81  4160  2359     0  1142  6519     0   0.0 0.000     0     0 0.000 0.000 0.290 0.000  1.10  0.00  0.00     0     0    67.5  0.00  0.00  0.92  4.00  4.00  3.46  2.19  1.85  0.49  0.00  0.00  0.00  0.00     0     0     0
 1984 042    81    73  27.0     3  2.76  4200  2458     0  1188  6659     0   0.0 0.000     0     0 0.000 0.000 0.287 0.000  1.23  0.00  0.00     0     0    65.8  0.00  0.00  0.93  4.00  4.00  3.46  2.19  1.85  0.49  0.00  0.00  0.00  0.00     0     0     0
 1984 043    82    74  28.0     3  2.74  4246  2579     0  1239  6825     0   0.0 0.000     0     0 0.000 0.000 0.180 0.000  1.27  0.00  0.00     0     0    64.6  0.00  0.00  0.93  4.00  4.00  3.46  2.19  1.85  0.49  0.00  0.00  0.00  0.00     0     0     0
 1984 044    83    75  28.0     3  2.73  4292  2703     0  1248  6995     0   0.0 0.000     0     0 0.000 0.000 0.164 0.000  1.26  0.00  0.00     0     0    63.5  0.00  0.00  0.94  4.00  4.00  3.45  2.18  1.84  0.49  0.00  0.00  0.00  0.00     0     0     0
 1984 045    84    76  29.0     3  2.71  4336  2833     0  1291  7170     0   0.0 0.000     0     0 0.000 0.000 0.162 0.000  1.25  0.00  0.00     0     0    62.5  0.00  0.00  0.94  4.00  4.00  3.53  2.21  1.86  0.50  0.00  0.00  0.00  0.00     0     0     0
 1984 046    85    77  29.0     3  2.69  4380  2966     0  1308  7346     0   0.0 0.000     0     0 0.000 0.000 0.164 0.000  1.22  0.00  0.00     0     0    61.5  0.00  0.00  0.95  4.00  4.00  3.60  2.25  1.88  0.51  0.00  0.00  0.00  0.00     0     0     0
 1984 047    86    78  29.0     3  2.67  4420  3091     0  1376  7511     0   0.0 0.000     0     0 0.000 0.000 0.167 0.000  1.20  0.00  0.00     0     0    60.5  0.00  0.00  0.95  4.00  4.00  3.88  2.38  1.97  0.54  0.00  0.00  0.00  0.00     0     0     0
 1984 048    87    79  30.0     3  2.65  4456  3210     0  1426  7666     0   0.0 0.000     0     0 0.000 0.000 0.171 0.000  1.18  0.00  0.00     0     0    59.4  0.00  0.00  0.95  4.00  4.00  4.00  2.48  2.03  0.57  0.00  0.00  0.00  0.00     0     0     0
 1984 049    88    80  30.0     3  2.62  4490  3328     0  1477  7818     0   0.0 0.000     0     0 0.000 0.000 0.174 0.000  1.17  0.00  0.00     0     0    58.3  0.00  0.00  0.96  4.00  4.00  4.00  2.58  2.10  0.59  0.00  0.00  0.00  0.00     0     0     0
 1984 050    89    81  30.0     4  2.56  4448  2818     0  1523  7935     0   0.0 0.000   670     0 0.000 0.000 0.177 0.000  1.26  0.00  0.08     0   670    57.6  0.00  0.00  0.96  4.00  4.00  4.00  2.67  2.16  0.61  0.00  0.00  0.00  0.00     0     0     0
 1984 051    90    82  30.0     4  2.52  4402  2864     0  1554  8050     0   0.0 0.000   785     0 0.000 0.000 0.142 0.000  1.26  0.00  0.10     0   785    57.1  0.00  0.00  0.97  4.00  4.00  4.00  2.73  2.19  0.63  0.00  0.00  0.00  0.00     0     0     0
 1984 052    91    83  30.0     4  2.47  4353  2913     0  1596  8175     0   0.0 0.000   909     0 0.000 0.000 0.137 0.000  1.27  0.00  0.11     0   909    56.8  0.00  0.00  0.97  4.00  4.00  4.00  2.82  2.25  0.65  0.01  0.00  0.00  0.00     0     0     0
 1984 053    92    84  30.0     4  2.43  4302  2964     0  1661  8300     0   0.0 0.000  1035     0 0.000 0.000 0.131 0.000  1.27  0.00  0.12     0  1035    56.5  0.00  0.00  0.98  4.00  4.00  4.00  2.95  2.33  0.68  0.01  0.00  0.00  0.00     0     0     0
 1984 054    93    85  30.0     4  2.39  4247  3012     0  1678  8414     0   0.0 0.000  1155     0 0.000 0.000 0.127 0.000  1.28  0.00  0.14     0  1155    56.4  0.00  0.00  0.98  3.98  4.00  4.00  2.99  2.36  0.69  0.01  0.00  0.00  0.00     0     0     0
 1984 055    94    86  30.0     4  2.36  4189  3066     0  1712  8546     0   0.0 0.000  1291     0 0.000 0.000 0.121 0.000  1.28  0.00  0.15     0  1291    56.3  0.00  0.00  0.98  4.00  4.00  4.00  3.05  2.40  0.71  0.01  0.00  0.00  0.00     0     0     0
 1984 056    95    87  30.0     4  2.32  4128  3121     0  1743  8678     0   0.0 0.000  1429     0 0.000 0.000 0.116 0.000  1.29  0.00  0.16     0  1429    56.3  0.00  0.00  0.99  4.00  4.00  4.00  3.12  2.44  0.73  0.01  0.00  0.00  0.00     0     0     0
 1984 057    96    88  30.0     4  2.29  4064  3178     0  1773  8811     0   0.0 0.000  1570     0 0.000 0.000 0.111 0.000  1.29  0.00  0.18     0  1570    56.4  0.00  0.00  0.99  4.00  4.00  4.00  3.18  2.48  0.74  0.01  0.00  0.00  0.00     0     0     0
 1984 058    97    89  30.0     4  2.26  3996  3236     0  1821  8947     0   0.0 0.000  1715     0 0.000 0.000 0.105 0.000  1.29  0.00  0.19     0  1715    56.6  0.00  0.00  1.00  4.00  4.00  4.00  3.27  2.54  0.76  0.01  0.00  0.00  0.00     0     0     0
 1984 059    98    90  30.0     4  2.23  3926  3292     0  1855  9074     0   0.0 0.000  1856     0 0.000 0.000 0.100 0.000  1.30  0.00  0.20     0  1856    56.9  0.00  0.00  1.00  4.00  4.00  4.00  3.34  2.58  0.78  0.02  0.00  0.00  0.00     0     0     0
 1984 060    99    91  30.0     4  2.21  3852  3339     0  1854  9163     0   0.0 0.000  1973     0 0.000 0.000 0.095 0.000  1.31  0.00  0.22     0  1973    57.3  0.00  0.00  1.01  4.00  4.00  4.00  3.34  2.58  0.78  0.02  0.00  0.00  0.00     0     0     0
 1984 061   100    92  30.0     4  2.18  3775  3397     0  1892  9291     0   0.0 0.000  2119     0 0.000 0.000 0.089 0.000  1.32  0.00  0.23     0  2119    57.8  0.00  0.00  1.01  4.00  4.00  4.00  3.41  2.63  0.80  0.02  0.00  0.00  0.00     0     0     0
 1984 062   101    93  30.0     5  2.14  3771  3397   122  1910  9409  1650   7.4 0.013  2241     6 0.000 0.000 0.155 0.000  1.30  5.44  0.24     0  2241    56.7  0.00  0.00  1.01  4.00  4.00  4.00  3.45  2.65  0.81  0.02  0.00  0.00  0.00     0     0     0
 1984 063   102    94  30.0     5  2.10  3767  3397   221  1934  9504  1650  13.4 0.023  2340     6 0.000 0.000 0.158 0.000  1.29  9.44  0.25     0  2340    55.7  0.00  0.00  1.02  4.00  4.00  4.00  3.49  2.68  0.82  0.02  0.00  0.00  0.00     0     0     0
 1984 064   103    95  30.0     5  2.06  3764  3397   320  1957  9600  1650  19.4 0.033  2439     6 0.000 0.000 0.157 0.000  1.28 13.12  0.25     0  2439    54.6  0.00  0.00  1.02  4.00  4.00  4.00  3.54  2.71  0.83  0.02  0.00  0.00  0.00     0     0     0
 1984 065   104    96  30.0     5  2.02  3760  3397   419  1998  9695  1650  25.4 0.043  2538     6 0.000 0.000 0.156 0.000  1.27 16.51  0.26     0  2538    53.6  0.00  0.00  1.03  4.00  4.00  4.00  3.62  2.76  0.85  0.02  0.00  0.00  0.00     0     0     0
 1984 066   105    97  30.0     5  1.98  3756  3397   518  2038  9790  1650  31.4 0.053  2637     6 0.000 0.000 0.155 0.000  1.26 19.64  0.27     0  2637    52.6  0.00  0.00  1.03  3.98  4.00  4.00  3.71  2.82  0.87  0.03  0.00  0.00  0.00     0     0     0
 1984 067   106    98  30.0     5  1.94  3752  3397   617  2083  9885  1650  37.4 0.062  2736     6 0.000 0.000 0.153 0.000  1.24 22.55  0.28     0  2736    51.7  0.00  0.00  1.03  3.96  4.00  4.00  3.82  2.89  0.90  0.03  0.00  0.00  0.00     0     0     0
 1984 068   107    99  30.0     5  1.90  3749  3397   716  2111  9981  1650  43.4 0.072  2835     6 0.000 0.000 0.152 0.000  1.23 25.26  0.28     0  2835    50.7  0.00  0.00  1.04  3.94  4.00  4.00  3.88  2.93  0.91  0.03  0.00  0.00  0.00     0     0     0
 1984 069   108   100  30.0     5  1.87  3745  3397   815  2142 10076  1650  49.4 0.081  2934     6 0.000 0.000 0.152 0.000  1.22 27.78  0.29     0  2934    49.8  0.00  0.00  1.04  4.00  4.00  4.00  3.94  2.97  0.93  0.03  0.00  0.00  0.00     0     0     0
 1984 070   109   101  30.0     5  1.83  3741  3397   914  2173 10171  1650  55.4 0.090  3033     6 0.000 0.000 0.150 0.000  1.20 30.14  0.30     0  3033    48.9  0.00  0.00  1.05  4.00  4.00  4.00  4.00  3.01  0.94  0.04  0.00  0.00  0.00     0     0     0
 1984 071   110   102  30.0     5  1.80  3737  3397  1013  2202 10266  1650  61.4 0.099  3132     6 0.000 0.000 0.149 0.000  1.19 32.35  0.31     0  3132    48.1  0.00  0.00  1.05  4.00  4.00  4.00  4.00  3.04  0.96  0.04  0.00  0.00  0.00     0     0     0
 1984 072   111   103  30.0     5  1.76  3734  3397  1112  2240 10362  1650  67.4 0.107  3231     6 0.000 0.000 0.148 0.000  1.17 34.42  0.31     0  3231    47.2  0.00  0.00  1.06  3.98  4.00  4.00  4.00  3.10  0.98  0.04  0.00  0.00  0.00     0     0     0
 1984 073   112   104  30.0     5  1.73  3730  3397  1211  2280 10457  1650  73.4 0.116  3330     6 0.000 0.000 0.148 0.000  1.16 36.37  0.32     0  3330    46.4  0.00  0.00  1.06  4.00  4.00  4.00  4.00  3.15  1.00  0.04  0.00  0.00  0.00     0     0     0
 1984 074   113   105  30.0     5  1.70  3726  3397  1310  2297 10552  1650  79.4 0.124  3429     6 0.000 0.000 0.147 0.000  1.15 38.21  0.32     0  3429    45.6  0.00  0.00  1.07  4.00  4.00  4.00  4.00  3.17  1.01  0.05  0.00  0.00  0.00     0     0     0
 1984 075   114   106  30.0     5  1.67  3723  3397  1409  2318 10648  1650  85.4 0.132  3528     6 0.000 0.000 0.147 0.000  1.13 39.94  0.33     0  3528    44.8  0.00  0.00  1.07  4.00  4.00  4.00  4.00  3.19  1.02  0.05  0.00  0.00  0.00     0     0     0
 1984 076   115   107  30.0     5  1.64  3719  3397  1508  2335 10743  1650  91.4 0.140  3627     6 0.000 0.000 0.147 0.000  1.12 41.58  0.34     0  3627    44.0  0.00  0.00  1.08  4.00  4.00  4.00  4.00  3.22  1.03  0.05  0.00  0.00  0.00     0     0     0
 1984 077   116   108  30.0     5  1.61  3715  3397  1607  2352 10838  1650  97.4 0.148  3726     6 0.000 0.000 0.147 0.000  1.10 43.13  0.34     0  3726    43.3  0.00  0.00  1.08  4.00  4.00  4.00  4.00  3.24  1.04  0.05  0.00  0.00  0.00     0     0     0
 1984 078   117   109  30.0     5  1.58  3711  3397  1706  2368 10934  1650 103.4 0.156  3825     6 0.000 0.000 0.146 0.000  1.09 44.61  0.35     0  3825    42.5  0.00  0.00  1.09  4.00  4.00  4.00  4.00  3.26  1.04  0.05  0.00  0.00  0.00     0     0     0
 1984 079   118   110  30.0     5  1.55  3708  3397  1805  2379 11029  1650 109.4 0.164  3924     6 0.000 0.000 0.146 0.000  1.08 46.00  0.36     0  3924    41.8  0.00  0.00  1.09  4.00  4.00  4.00  4.00  3.27  1.05  0.05  0.00  0.00  0.00     0     0     0
 1984 080   119   111  30.0     5  1.52  3704  3397  1904  2395 11124  1650 115.4 0.171  4023     6 0.000 0.000 0.146 0.000  1.06 47.33  0.36     0  4023    41.1  0.00  0.00  1.10  4.00  4.00  4.00  4.00  3.29  1.06  0.06  0.00  0.00  0.00     0     0     0
 1984 081   120   112  30.0     5  1.49  3700  3397  2003  2425 11219  1650 121.4 0.179  4122     6 0.000 0.000 0.146 0.000  1.05 48.60  0.37     0  4122    40.3  0.00  0.00  1.10  3.98  4.00  4.00  4.00  3.33  1.08  0.06  0.00  0.00  0.00     0     0     0
 1984 082   121   113  30.0     5  1.47  3697  3397  2102  2452 11315  1650 127.4 0.186  4221     6 0.000 0.000 0.146 0.000  1.03 49.80  0.37     0  4221    39.6  0.00  0.00  1.10  4.00  4.00  4.00  4.00  3.37  1.09  0.06  0.00  0.00  0.00     0     0     0
 1984 083   122   114  30.0     5  1.44  3693  3397  2201  2475 11410  1650 133.4 0.193  4320     6 0.000 0.000 0.147 0.000  1.02 50.95  0.38     0  4320    39.0  0.00  0.00  1.10  4.00  4.00  4.00  4.00  3.39  1.10  0.07  0.00  0.00  0.00     0     0     0
 1984 084   123   115  30.0     5  1.41  3689  3397  2300  2497 11505  1650 139.4 0.200  4419     6 0.000 0.000 0.147 0.000  1.00 52.05  0.38     0  4419    38.3  0.00  0.00  1.10  4.00  4.00  4.00  4.00  3.42  1.11  0.07  0.00  0.00  0.00     0     0     0
 1984 085   124   116  30.0     5  1.39  3685  3397  2399  2519 11601  1650 145.4 0.207  4518     6 0.000 0.000 0.148 0.000  0.99 53.10  0.39     0  4518    37.6  0.00  0.00  1.10  4.00  4.00  4.00  4.00  3.45  1.12  0.07  0.00  0.00  0.00     0     0     0
 1984 086   125   117  30.0     5  1.36  3682  3397  2498  2546 11696  1650 151.4 0.214  4617     6 0.000 0.000 0.149 0.000  0.97 54.11  0.39     0  4617    36.9  0.00  0.00  1.10  4.00  4.00  4.00  4.00  3.48  1.13  0.08  0.00  0.00  0.00     0     0     0
 1984 087   126   118  30.0     5  1.33  3678  3397  2597  2572 11791  1650 157.4 0.220  4716     6 0.000 0.000 0.150 0.000  0.96 55.07  0.40     0  4716    36.3  0.00  0.00  1.10  4.00  4.00  4.00  4.00  3.51  1.15  0.08  0.00  0.00  0.00     0     0     0
 1984 088   127   119  30.0     5  1.31  3674  3397  2696  2584 11887  1650 163.4 0.227  4815     6 0.000 0.000 0.150 0.000  0.94 56.00  0.41     0  4815    35.6  0.00  0.00  1.10  4.00  4.00  4.00  4.00  3.53  1.15  0.08  0.00  0.00  0.00     0     0     0
 1984 089   128   120  30.0     5  1.28  3671  3397  2795  2597 11982  1650 169.4 0.233  4914     6 0.000 0.000 0.152 0.000  0.93 56.88  0.41     0  4914    35.0  0.00  0.00  1.10  4.00  4.00  4.00  4.00  3.54  1.16  0.08  0.00  0.00  0.00     0     0     0
 1984 090   129   121  30.0     5  1.26  3667  3397  2894  2615 12078  1650 175.4 0.240  5013     6 0.000 0.000 0.153 0.000  0.92 57.74  0.42     0  5013    34.4  0.00  0.00  1.10  4.00  4.00  4.00  4.00  3.57  1.17  0.08  0.00  0.00  0.00     0     0     0
 1984 091   130   122  30.0     5  1.24  3663  3397  2993  2633 12173  1650 181.4 0.246  5112     6 0.000 0.000 0.154 0.000  0.90 58.55  0.42     0  5112    33.7  0.00  0.00  1.10  4.00  4.00  4.00  4.00  3.59  1.17  0.09  0.00  0.00  0.00     0     0     0
 1984 092   131   123  30.0     5  1.21  3660  3397  3092  2649 12268  1650 187.4 0.252  5211     6 0.000 0.000 0.156 0.000  0.89 59.34  0.42     0  5211    33.1  0.00  0.00  1.10  3.98  4.00  4.00  4.00  3.61  1.18  0.09  0.00  0.00  0.00     0     0     0
 1984 093   132   124  30.0     5  1.19  3656  3397  3191  2653 12364  1650 193.4 0.258  5310     6 0.000 0.000 0.158 0.000  0.87 60.10  0.43     0  5310    32.5  0.00  0.00  1.10  3.96  4.00  4.00  4.00  3.62  1.19  0.09  0.00  0.00  0.00     0     0     0
 1984 094   133   125  30.0     5  1.16  3652  3397  3291  2669 12459  1650 199.4 0.264  5409     6 0.000 0.000 0.161 0.000  0.86 60.83  0.43     0  5409    31.9  0.00  0.00  1.10  3.94  4.00  4.00  4.00  3.64  1.20  0.09  0.00  0.00  0.00     0     0     0
 1984 095   134   126  30.0     5  1.14  3649  3397  3390  2680 12554  1650 205.4 0.270  5508     6 0.000 0.000 0.164 0.000  0.84 61.53  0.44     0  5508    31.3  0.00  0.00  1.10  3.92  4.00  4.00  4.00  3.66  1.21  0.09  0.00  0.00  0.00     0     0     0
 1984 096   135   127  30.0     5  1.12  3645  3397  3489  2694 12650  1650 211.4 0.276  5607     6 0.000 0.291 0.166 0.000  0.83 62.21  0.44     0  5607    30.6  0.00  0.00  1.10  3.90  4.00  4.00  4.00  3.68  1.21  0.09  0.00  0.00  0.00     0     0     0
 1984 097   136   128  30.0     5  1.09  3641  3397  3588  2696 12745  1650 217.4 0.281  5706     6 0.000 0.294 0.170 0.000  0.81 62.87  0.45     0  5706    30.0  0.00  0.00  1.10  3.88  4.00  4.00  4.00  3.69  1.22  0.10  0.00  0.00  0.00     0     0     0
 1984 098   137   129  30.0     5  1.07  3638  3397  3687  2698 12840  1650 223.4 0.287  5805     6 0.000 0.024 0.174 0.000  0.80 63.50  0.45     0  5805    29.4  0.00  0.00  1.10  4.00  4.00  4.00  4.00  3.68  1.22  0.10  0.00  0.00  0.00     0     0     0
 1984 099   138   130  30.0     5  1.05  3634  3397  3786  2699 12936  1650 229.4 0.293  5904     6 0.000 0.000 0.176 0.000  0.78 64.11  0.46     0  5904    28.8  0.00  0.00  1.10  4.00  4.00  4.00  4.00  3.68  1.22  0.10  0.00  0.00  0.00     0     0     0
 1984 100   139   131  30.0     5  1.02  3631  3397  3885  2709 13031  1650 235.4 0.298  6003     6 0.000 0.000 0.179 0.000  0.77 64.71  0.46     0  6003    28.2  0.00  0.00  1.10  3.98  4.00  4.00  4.00  3.70  1.22  0.10  0.00  0.00  0.00     0     0     0
 1984 101   140   132  30.0     5  1.00  3627  3397  3984  2707 13127  1650 241.4 0.303  6102     6 0.000 0.000 0.183 0.000  0.75 65.28  0.46     0  6102    27.5  0.00  0.00  1.10  3.96  4.00  4.00  4.00  3.70  1.22  0.10  0.00  0.00  0.00     0     0     0
 1984 102   141   133  30.0     5  0.98  3623  3397  4058  2712 13197  1650 245.9 0.307  6177     6 0.450 0.634 0.187 0.000  0.74 65.70  0.47     0  6177    26.9  0.00  0.00  1.10  4.00  4.00  4.00  4.00  3.70  1.22  0.10  0.00  0.00  0.00     0     0     0
 1984 103   142   134  30.0     5  0.95  3620  3397  4157  2715 13293  1650 251.9 0.313  6276     6 0.000 0.055 0.190 0.000  0.73 66.24  0.47     0  6276    26.3  0.00  0.00  1.10  4.00  4.00  4.00  4.00  3.70  1.23  0.10  0.00  0.00  0.00     0     0     0
 1984 104   143   135  30.0     5  0.93  3616  3397  4256  2718 13388  1650 257.9 0.318  6375     6 0.000 0.000 0.195 0.000  0.71 66.76  0.48     0  6375    25.7  0.00  0.00  1.10  3.98  4.00  4.00  4.00  3.71  1.23  0.10  0.00  0.00  0.00     0     0     0
 1984 105   144   136  30.0     5  0.91  3612  3397  4338  2718 13467  1650 262.9 0.322  6457     6 0.307 0.539 0.200 0.000  0.70 67.19  0.48     0  6457    25.1  0.00  0.00  1.10  3.96  4.00  4.00  4.00  3.71  1.23  0.10  0.00  0.00  0.00     0     0     0
 1984 106   145   137  30.0     5  0.91  3612  3397  4338  2718 13467  1650 262.9 0.322  6457     6 0.307 0.539 0.200 0.000  0.70 67.19  0.48     0  6457    25.1  0.00  0.00  1.10  3.94  4.00  4.00  4.00  3.71  1.23  0.10  0.00  0.00  0.00     0     0     0
 1984 107   146   138  30.0     5  0.91  3612  3397  4338  2718 13467  1650 262.9 0.322  6457     6 0.307 0.539 0.200 0.000  0.70 67.19  0.48     0  6457    25.1  0.00  0.00  1.10  3.92  4.00  4.00  4.00  3.72  1.23  0.10  0.00  0.00  0.00     0     0     0
 1984 108   147   139  30.0     5  0.91  3612  3397  4338  2718 13467  1650 262.9 0.322  6457     6 0.307 0.539 0.200 0.000  0.70 67.19  0.48     0  6457    25.1  0.00  0.00  1.10  4.00  4.00  4.00  4.00  3.71  1.23  0.10  0.00  0.00  0.00     0     0     0
 1984 109   148   140  30.0     5  0.91  3612  3397  4338  2718 13467  1650 262.9 0.322  6457     6 0.307 0.539 0.200 0.000  0.70 67.19  0.48     0  6457    25.1  0.00  0.00  0.05  4.00  4.00  4.00  4.00  3.71  1.23  0.10  0.00  0.00  0.00     0     0     0

*RUN   3        :  X304C 200 kg N/ha       
 MODEL          : MZCER020 - MAIZE     
 EXPERIMENT     : IBWA8301 MZ     IBWA8301MZ N X VAR WAPIO, IBSNAT EXP.1983-4   
 TREATMENT  3   :  X304C 200 kg N/ha       

@YEAR DOY   DAS   DAP  L#SD  GSTD  LAID  LWAD  SWAD  GWAD  RWAD  CWAD  G#AD  GWGD  HIAD  PWAD  P#AD  WSPD  WSGD  NSTD  EWSD  LN%D  SH%D  HIPD  PWDD  PWTD    SLAD  CHTD  CWID  RDPD  RL1D  RL2D  RL3D  RL4D  RL5D  RL6D  RL7D  RL8D  RL9D  RL10  CDAD  LDAD  SDAD
 1983 334     8     0   0.0     0  0.00     0     0     0     0     0     0   0.0 0.000     0     0 0.000 0.000 0.000 0.000  0.00  0.00  0.00     0     0     0.0  0.00  0.00  0.05  0.00  0.00  0.00  0.00  0.00  0.00  0.00  0.00  0.00  0.00     0     0     0
 1983 335     9     1   0.0     0  0.00     0     0     0     0     0     0   0.0 0.000     0     0 0.000 0.000 0.000 0.000  0.00  0.00  0.00     0     0     0.0  0.00  0.00  0.08  0.00  0.00  0.00  0.00  0.00  0.00  0.00  0.00  0.00  0.00     0     0     0
 1983 336    10     2   0.0     0  0.00     0     0     0     0     0     0   0.0 0.000     0     0 0.000 0.000 0.000 0.000  0.00  0.00  0.00     0     0     0.0  0.00  0.00  0.10  0.00  0.00  0.00  0.00  0.00  0.00  0.00  0.00  0.00  0.00     0     0     0
 1983 337    11     3   0.0     0  0.00     0     0     0     0     0     0   0.0 0.000     0     0 0.000 0.000 0.000 0.000  0.00  0.00  0.00     0     0     0.0  0.00  0.00  0.13  0.00  0.00  0.00  0.00  0.00  0.00  0.00  0.00  0.00  0.00     0     0     0
 1983 338    12     4   0.0     0  0.00     0     0     0     0     0     0   0.0 0.000     0     0 0.000 0.000 0.000 0.000  0.00  0.00  0.00     0     0     0.0  0.00  0.00  0.15  0.00  0.00  0.00  0.00  0.00  0.00  0.00  0.00  0.00  0.00     0     0     0
 1983 339    13     5   0.0     0  0.00     0     0     0     0     0     0   0.0 0.000     0     0 0.000 0.000 0.000 0.000  0.00  0.00  0.00     0     0     0.0  0.00  0.00  0.18  0.00  0.00  0.00  0.00  0.00  0.00  0.00  0.00  0.00  0.00     0     0     0
 1983 340    14     6   2.0     1  0.00    12    12     0    12    23     0   0.0 0.000     0     0 0.000 0.000 0.012 0.000  4.40  0.00  0.00     0     0    31.0  0.00  0.00  0.19  0.23  0.12  0.01  0.00  0.00  0.00  0.00  0.00  0.00  0.00     0     0     0
 1983 341    15     7   2.0     1  0.01    12    12     0    12    23     0   0.0 0.000     0     0 0.000 0.000 0.015 0.000  4.52  0.00  0.00     0     0    62.4  0.00  0.00  0.21  0.23  0.12  0.01  0.00  0.00  0.00  0.00  0.00  0.00  0.00     0     0     0
 1983 342    16     8   3.0     1  0.01    12    12     0    13    23     0   0.0 0.000     0     0 0.000 0.000 0.000 0.000  4.49  0.00  0.00     0     0    96.4  0.00  0.00  0.22  0.24  0.12  0.01  0.00  0.00  0.00  0.00  0.00  0.00  0.00     0     0     0
 1983 343    17     9   3.0     1  0.02    12    12     0    14    23     0   0.0 0.000     0     0 0.000 0.000 0.000 0.000  4.46  0.00  0.00     0     0   136.4  0.00  0.00  0.24  0.25  0.13  0.02  0.00  0.00  0.00  0.00  0.00  0.00  0.00     0     0     0
 1983 344    18    10   4.0     1  0.03    12    12     0    15    23     0   0.0 0.000     0     0 0.000 0.000 0.000 0.000  4.43  0.00  0.00     0     0   264.4  0.00  0.00  0.25  0.25  0.15  0.02  0.00  0.00  0.00  0.00  0.00  0.00  0.00     0     0     0
 1983 345    19    11   4.0     1  0.04    12    12     0    17    24     0   0.0 0.000     0     0 0.000 0.000 0.000 0.000  4.41  0.00  0.00     0     0   338.5  0.00  0.00  0.26  0.28  0.17  0.04  0.00  0.00  0.00  0.00  0.00  0.00  0.00     0     0     0
 1983 346    20    12   4.0     1  0.06    19    12     0    18    31     0   0.0 0.000     0     0 0.000 0.000 0.000 0.000  4.39  0.00  0.00     0     0   310.9  0.00  0.00  0.27  0.28  0.18  0.04  0.00  0.00  0.00  0.00  0.00  0.00  0.00     0     0     0
 1983 347    21    13   5.0     1  0.08    27    12     0    19    39     0   0.0 0.000     0     0 0.000 0.000 0.000 0.000  4.36  0.00  0.00     0     0   288.7  0.00  0.00  0.28  0.28  0.18  0.04  0.00  0.00  0.00  0.00  0.00  0.00  0.00     0     0     0
 1983 348    22    14   5.0     1  0.09    34    12     0    22    46     0   0.0 0.000     0     0 0.000 0.000 0.000 0.000  4.34  0.00  0.00     0     0   275.9  0.00  0.00  0.29  0.29  0.21  0.06  0.00  0.00  0.00  0.00  0.00  0.00  0.00     0     0     0
 1983 349    23    15   5.0     1  0.11    43    12     0    24    55     0   0.0 0.000     0     0 0.000 0.000 0.000 0.000  4.32  0.00  0.00     0     0   262.9  0.00  0.00  0.30  0.29  0.22  0.07  0.00  0.00  0.00  0.00  0.00  0.00  0.00     0     0     0
 1983 350    24    16   6.0     1  0.14    54    12     0    28    66     0   0.0 0.000     0     0 0.000 0.000 0.000 0.000  4.30  0.00  0.00     0     0   251.1  0.00  0.00  0.31  0.32  0.25  0.09  0.00  0.00  0.00  0.00  0.00  0.00  0.00     0     0     0
 1983 351    25    17   6.0     1  0.16    65    12     0    33    77     0   0.0 0.000     0     0 0.000 0.000 0.000 0.000  4.28  0.00  0.00     0     0   241.5  0.00  0.00  0.32  0.36  0.29  0.12  0.00  0.00  0.00  0.00  0.00  0.00  0.00     0     0     0
 1983 352    26    18   6.0     1  0.18    78    12     0    40    90     0   0.0 0.000     0     0 0.000 0.000 0.000 0.000  4.26  0.00  0.00     0     0   232.6  0.00  0.00  0.33  0.39  0.35  0.16  0.00  0.00  0.00  0.00  0.00  0.00  0.00     0     0     0
 1983 353    27    19   7.0     1  0.21    93    12     0    52   105     0   0.0 0.000     0     0 0.000 0.000 0.000 0.000  4.24  0.00  0.00     0     0   224.5  0.00  0.00  0.34  0.47  0.44  0.22  0.01  0.00  0.00  0.00  0.00  0.00  0.00     0     0     0
 1983 354    28    20   7.0     1  0.24   110    12     0    63   121     0   0.0 0.000     0     0 0.000 0.000 0.000 0.000  4.22  0.00  0.00     0     0   217.0  0.00  0.00  0.34  0.55  0.52  0.28  0.01  0.00  0.00  0.00  0.00  0.00  0.00     0     0     0
 1983 355    29    21   7.0     1  0.27   129    12     0    71   140     0   0.0 0.000     0     0 0.000 0.000 0.000 0.000  4.19  0.00  0.00     0     0   209.9  0.00  0.00  0.36  0.60  0.58  0.32  0.02  0.00  0.00  0.00  0.00  0.00  0.00     0     0     0
[...]
 1984 028    67    59  22.0     3  3.88  3611  1615     0   755  5225     0   0.0 0.000     0     0 0.000 0.000 0.022 0.000  2.85  0.00  0.00     0     0   107.5  0.00  0.00  0.83  3.73  4.00  2.93  1.40  0.64  0.03  0.00  0.00  0.00  0.00     0     0     0
 1984 029    68    60  23.0     3  3.95  3699  1786     0   765  5485     0   0.0 0.000     0     0 0.000 0.000 0.022 0.000  2.81  0.00  0.00     0     0   106.9  0.00  0.00  0.84  3.81  4.00  2.95  1.42  0.66  0.03  0.00  0.00  0.00  0.00     0     0     0
 1984 030    69    61  23.0     3  4.17  3944  1864     0   780  5809     0   0.0 0.000     0     0 0.000 0.000 0.022 0.000  2.70  0.00  0.00     0     0   105.7  0.00  0.00  0.85  3.80  4.00  3.02  1.47  0.70  0.05  0.00  0.00  0.00  0.00     0     0     0
 1984 031    70    62  23.0     3  4.25  4045  1954     0   786  5999     0   0.0 0.000     0     0 0.000 0.000 0.022 0.000  2.65  0.00  0.00     0     0   105.0  0.00  0.00  0.86  3.79  3.99  3.03  1.50  0.73  0.06  0.00  0.00  0.00  0.00     0     0     0
 1984 032    71    63  24.0     3  4.33  4142  2072     0   794  6214     0   0.0 0.000     0     0 0.000 0.000 0.022 0.000  2.58  0.00  0.00     0     0   104.4  0.00  0.00  0.87  3.79  3.98  3.02  1.53  0.76  0.09  0.00  0.00  0.00  0.00     0     0     0
 1984 033    72    64  24.0     3  4.40  4237  2211     0   803  6448     0   0.0 0.000     0     0 0.000 0.000 0.022 0.000  2.51  0.00  0.00     0     0   103.8  0.00  0.00  0.88  3.79  3.98  3.02  1.55  0.80  0.12  0.00  0.00  0.00  0.00     0     0     0
 1984 034    73    65  24.0     3  4.45  4308  2327     0   810  6635     0   0.0 0.000     0     0 0.000 0.000 0.024 0.000  2.45  0.00  0.00     0     0   103.3  0.00  0.00  0.88  3.79  3.98  3.02  1.56  0.82  0.15  0.00  0.00  0.00  0.00     0     0     0
 1984 035    74    66  25.0     3  4.49  4374  2447     0   816  6821     0   0.0 0.000     0     0 0.000 0.000 0.025 0.000  2.40  0.00  0.00     0     0   102.7  0.00  0.00  0.89  3.79  3.98  3.02  1.56  0.84  0.18  0.00  0.00  0.00  0.00     0     0     0
 1984 036    75    67  25.0     3  4.53  4436  2572     0   823  7008     0   0.0 0.000     0     0 0.000 0.000 0.026 0.000  2.36  0.00  0.00     0     0   102.1  0.00  0.00  0.90  3.79  3.98  3.02  1.56  0.85  0.22  0.00  0.00  0.00  0.00     0     0     0
 1984 037    76    68  25.0     3  4.59  4521  2756     0   838  7277     0   0.0 0.000     0     0 0.000 0.000 0.027 0.000  2.28  0.00  0.00     0     0   101.5  0.00  0.00  0.90  3.81  4.00  3.04  1.57  0.86  0.29  0.00  0.00  0.00  0.00     0     0     0
 1984 038    77    69  26.0     3  4.63  4588  2915     0   846  7503     0   0.0 0.000     0     0 0.000 0.000 0.029 0.000  2.23  0.00  0.00     0     0   100.8  0.00  0.00  0.91  3.82  4.00  3.05  1.57  0.86  0.33  0.00  0.00  0.00  0.00     0     0     0
 1984 039    78    70  26.0     3  4.67  4668  3113     0   903  7781     0   0.0 0.000     0     0 0.000 0.000 0.031 0.000  2.16  0.00  0.00     0     0   100.1  0.00  0.00  0.91  3.95  4.00  3.15  1.62  0.89  0.55  0.00  0.00  0.00  0.00     0     0     0
 1984 040    79    71  27.0     3  4.71  4742  3310     0   971  8053     0   0.0 0.000     0     0 0.000 0.000 0.033 0.000  2.09  0.00  0.00     0     0    99.4  0.00  0.00  0.92  4.00  4.00  3.28  1.69  0.94  0.80  0.00  0.00  0.00  0.00     0     0     0
 1984 041    80    72  27.0     3  4.75  4819  3525     0  1010  8344     0   0.0 0.000     0     0 0.000 0.000 0.036 0.000  2.03  0.00  0.00     0     0    98.6  0.00  0.00  0.92  4.00  4.00  3.36  1.72  0.96  0.94  0.00  0.00  0.00  0.00     0     0     0
 1984 042    81    73  27.0     3  4.79  4891  3735     0  1053  8626     0   0.0 0.000     0     0 0.000 0.000 0.038 0.000  2.40  0.00  0.00     0     0    97.9  0.00  0.00  0.93  4.00  4.00  3.35  1.72  0.96  0.95  0.00  0.00  0.00  0.00     0     0     0
 1984 043    82    74  28.0     3  4.82  4958  3942     0  1103  8900     0   0.0 0.000     0     0 0.000 0.000 0.022 0.000  2.37  0.00  0.00     0     0    97.1  0.00  0.00  0.93  4.00  4.00  3.34  1.72  0.96  0.96  0.00  0.00  0.00  0.00     0     0     0
 1984 044    83    75  28.0     3  4.84  5017  4128     0  1111  9144     0   0.0 0.000     0     0 0.000 0.000 0.022 0.000  2.34  0.00  0.00     0     0    96.4  0.00  0.00  0.94  4.00  4.00  3.33  1.71  0.96  0.96  0.00  0.00  0.00  0.00     0     0     0
 1984 045    84    76  29.0     3  4.86  5079  4334     0  1154  9413     0   0.0 0.000     0     0 0.000 0.000 0.022 0.000  2.31  0.00  0.00     0     0    95.6  0.00  0.00  0.94  4.00  4.00  3.33  1.70  0.95  0.96  0.00  0.00  0.00  0.00     0     0     0
 1984 046    85    77  29.0     4  4.82  5033  3689     0  1164  9641     0   0.0 0.000   920     0 0.000 0.000 0.022 0.000  2.50  0.00  0.10     0   920    95.9  0.00  0.00  0.95  4.00  4.00  3.32  1.70  0.95  0.96  0.00  0.00  0.00  0.00     0     0     0
 1984 047    86    78  29.0     4  4.79  4982  3764     0  1243  9853     0   0.0 0.000  1107     0 0.000 0.000 0.022 0.000  2.49  0.00  0.11     0  1107    96.2  0.00  0.00  0.95  4.00  4.00  3.36  1.69  0.95  0.97  0.00  0.00  0.00  0.00     0     0     0
 1984 048    87    79  29.0     4  4.76  4928  3836     0  1296 10052     0   0.0 0.000  1288     0 0.000 0.000 0.022 0.000  2.48  0.00  0.13     0  1288    96.6  0.00  0.00  0.95  4.00  4.00  3.39  1.69  0.95  0.98  0.00  0.00  0.00  0.00     0     0     0
 1984 049    88    80  29.0     4  4.73  4871  3908     0  1348 10248     0   0.0 0.000  1469     0 0.000 0.000 0.022 0.000  2.48  0.00  0.14     0  1469    97.2  0.00  0.00  0.96  4.00  4.00  3.43  1.68  0.94  0.98  0.00  0.00  0.00  0.00     0     0     0
 1984 050    89    81  29.0     4  4.71  4810  3986     0  1392 10457     0   0.0 0.000  1662     0 0.000 0.000 0.022 0.000  2.48  0.00  0.16     0  1662    97.8  0.00  0.00  0.96  4.00  4.00  3.47  1.68  0.94  0.98  0.00  0.00  0.00  0.00     0     0     0
 1984 051    90    82  29.0     4  4.68  4745  4053     0  1427 10629     0   0.0 0.000  1831     0 0.000 0.000 0.022 0.000  2.48  0.00  0.17     0  1831    98.6  0.00  0.00  0.97  4.00  4.00  3.51  1.67  0.94  0.99  0.00  0.00  0.00  0.00     0     0     0
 1984 052    91    83  29.0     4  4.65  4678  4124     0  1480 10811     0   0.0 0.000  2009     0 0.000 0.000 0.022 0.000  2.47  0.00  0.19     0  2009    99.5  0.00  0.00  0.97  4.00  4.00  3.57  1.67  0.93  0.99  0.00  0.00  0.00  0.00     0     0     0
 1984 053    92    84  29.0     4  4.63  4607  4196     0  1565 10989     0   0.0 0.000  2187     0 0.000 0.000 0.022 0.000  2.47  0.00  0.20     0  2187   100.5  0.00  0.00  0.98  4.00  4.00  3.68  1.67  0.93  1.00  0.00  0.00  0.00  0.00     0     0     0
 1984 054    93    85  29.0     4  4.61  4532  4262     0  1588 11147     0   0.0 0.000  2353     0 0.000 0.000 0.022 0.000  2.48  0.00  0.21     0  2353   101.6  0.00  0.00  0.98  4.00  4.00  3.71  1.67  0.93  1.00  0.00  0.00  0.00  0.00     0     0     0
 1984 055    94    86  29.0     4  4.58  4455  4335     0  1636 11327     0   0.0 0.000  2537     0 0.000 0.000 0.022 0.000  2.48  0.00  0.22     0  2537   102.9  0.00  0.00  0.98  4.00  4.00  3.78  1.67  0.93  1.00  0.00  0.00  0.00  0.00     0     0     0
 1984 056    95    87  29.0     4  4.56  4373  4409     0  1684 11503     0   0.0 0.000  2721     0 0.000 0.000 0.022 0.000  2.48  0.00  0.24     0  2721   104.3  0.00  0.00  0.99  4.00  4.00  3.84  1.68  0.93  1.01  0.00  0.00  0.00  0.00     0     0     0
 1984 057    96    88  29.0     4  4.54  4288  4483     0  1731 11676     0   0.0 0.000  2905     0 0.000 0.000 0.022 0.000  2.48  0.00  0.25     0  2905   105.9  0.00  0.00  0.99  4.00  4.00  3.91  1.68  0.93  1.01  0.00  0.00  0.00  0.00     0     0     0
 1984 058    97    89  29.0     5  4.52  4284  4483   159  1792 11831  2488   6.4 0.013  3064     6 0.000 0.000 0.000 0.000  2.45  5.20  0.26     0  3064   105.6  0.00  0.00  1.00  4.00  4.00  4.00  1.69  0.93  1.02  0.00  0.00  0.00  0.00     0     0     0
 1984 059    98    90  29.0     5  4.50  4280  4483   318  1841 11986  2488  12.8 0.027  3223     6 0.000 0.000 0.000 0.000  2.42  9.88  0.27     0  3223   105.2  0.00  0.00  1.00  4.00  4.00  4.00  1.70  0.94  1.02  0.00  0.00  0.00  0.00     0     0     0
 1984 060    99    91  29.0     5  4.49  4275  4483   478  1852 12141  2488  19.2 0.039  3382     6 0.000 0.000 0.000 0.000  2.39 14.12  0.28     0  3382   104.9  0.00  0.00  1.01  4.00  4.00  4.00  1.69  0.93  1.02  0.00  0.00  0.00  0.00     0     0     0
 1984 061   100    92  29.0     5  4.47  4271  4483   637  1906 12296  2488  25.6 0.052  3542     6 0.000 0.000 0.000 0.000  2.36 17.98  0.29     0  3542   104.6  0.00  0.00  1.01  4.00  4.00  4.00  1.70  0.94  1.02  0.00  0.00  0.00  0.00     0     0     0
 1984 062   101    93  29.0     5  4.45  4267  4483   796  1943 12450  2488  32.0 0.064  3701     6 0.000 0.000 0.000 0.000  2.33 21.51  0.30     0  3701   104.3  0.00  0.00  1.01  4.00  4.00  4.00  1.71  0.94  1.03  0.00  0.00  0.00  0.00     0     0     0
 1984 063   102    94  29.0     5  4.44  4263  4483   955  1981 12605  2488  38.4 0.076  3860     6 0.000 0.000 0.000 0.000  2.30 24.75  0.31     0  3860   104.0  0.00  0.00  1.02  4.00  4.00  4.00  1.72  0.94  1.03  0.00  0.00  0.00  0.00     0     0     0
 1984 064   103    95  29.0     5  4.42  4258  4483  1115  2018 12760  2488  44.8 0.087  4019     6 0.000 0.000 0.000 0.000  2.27 27.73  0.31     0  4019   103.8  0.00  0.00  1.02  4.00  4.00  4.00  1.74  0.94  1.03  0.00  0.00  0.00  0.00     0     0     0
 1984 065   104    96  29.0     5  4.40  4254  4483  1274  2084 12915  2488  51.2 0.099  4179     6 0.000 0.000 0.000 0.000  2.24 30.48  0.32     0  4179   103.5  0.00  0.00  1.03  4.00  4.00  4.00  1.77  0.95  1.03  0.00  0.00  0.00  0.00     0     0     0
 1984 066   105    97  29.0     5  4.39  4250  4483  1433  2149 13070  2488  57.6 0.110  4338     6 0.000 0.000 0.000 0.000  2.21 33.03  0.33     0  4338   103.3  0.00  0.00  1.03  4.00  4.00  4.00  1.80  0.96  1.04  0.00  0.00  0.00  0.00     0     0     0
 1984 067   106    98  29.0     5  4.38  4246  4483  1592  2221 13225  2488  64.0 0.120  4497     6 0.000 0.000 0.000 0.000  2.18 35.41  0.34     0  4497   103.1  0.00  0.00  1.03  4.00  4.00  4.00  1.83  0.97  1.04  0.00  0.00  0.00  0.00     0     0     0
 1984 068   107    99  29.0     5  4.36  4241  4483  1751  2269 13380  2488  70.4 0.131  4656     6 0.000 0.000 0.000 0.000  2.15 37.61  0.35     0  4656   102.9  0.00  0.00  1.04  4.00  4.00  4.00  1.86  0.98  1.05  0.00  0.00  0.00  0.00     0     0     0
 1984 069   108   100  29.0     5  4.35  4237  4483  1911  2323 13535  2488  76.8 0.141  4815     6 0.000 0.148 0.000 0.000  2.12 39.68  0.36     0  4815   102.7  0.00  0.00  1.04  4.00  4.00  4.00  1.89  0.99  1.05  0.00  0.00  0.00  0.00     0     0     0
 1984 070   109   101  29.0     5  4.34  4233  4483  2070  2376 13690  2488  83.2 0.151  4975     6 0.000 0.000 0.000 0.000  2.09 41.61  0.36     0  4975   102.5  0.00  0.00  1.05  4.00  4.00  4.00  1.92  1.00  1.05  0.00  0.00  0.00  0.00     0     0     0
 1984 071   110   102  29.0     5  4.33  4229  4483  2229  2429 13845  2488  89.6 0.161  5134     6 0.000 0.000 0.000 0.000  2.06 43.42  0.37     0  5134   102.3  0.00  0.00  1.05  4.00  4.00  4.00  1.95  1.01  1.06  0.00  0.00  0.00  0.00     0     0     0
 1984 072   111   103  29.0     5  4.32  4224  4483  2388  2495 14000  2488  96.0 0.171  5293     6 0.000 0.000 0.000 0.000  2.03 45.12  0.38     0  5293   102.2  0.00  0.00  1.06  4.00  4.00  4.00  1.99  1.02  1.06  0.00  0.00  0.00  0.00     0     0     0
 1984 073   112   104  29.0     5  4.30  4220  4483  2542  2561 14150  2488 102.2 0.180  5447     6 0.062 0.375 0.000 0.000  2.00 46.67  0.38     0  5447   101.9  0.00  0.00  1.06  4.00  4.00  4.00  2.03  1.03  1.07  0.00  0.00  0.00  0.00     0     0     0
 1984 074   113   105  29.0     5  4.29  4216  4483  2701  2596 14305  2488 108.6 0.189  5606     6 0.000 0.000 0.000 0.000  1.97 48.19  0.39     0  5606   101.8  0.00  0.00  1.07  4.00  4.00  4.00  2.05  1.04  1.07  0.00  0.00  0.00  0.00     0     0     0
 1984 075   114   106  29.0     5  4.28  4212  4483  2861  2637 14460  2488 115.0 0.198  5765     6 0.000 0.000 0.000 0.000  1.94 49.62  0.40     0  5765   101.7  0.00  0.00  1.07  4.00  4.00  4.00  2.08  1.05  1.07  0.00  0.00  0.00  0.00     0     0     0
 1984 076   115   107  29.0     5  4.27  4208  4483  3020  2675 14615  2488 121.4 0.207  5925     6 0.000 0.000 0.000 0.000  1.91 50.97  0.41     0  5925   101.5  0.00  0.00  1.08  4.00  4.00  4.00  2.10  1.05  1.07  0.00  0.00  0.00  0.00     0     0     0
 1984 077   116   108  29.0     5  4.26  4203  4483  3179  2712 14770  2488 127.8 0.215  6084     6 0.000 0.000 0.000 0.000  1.88 52.25  0.41     0  6084   101.4  0.00  0.00  1.08  4.00  4.00  4.00  2.12  1.06  1.07  0.00  0.00  0.00  0.00     0     0     0
 1984 078   117   109  29.0     5  4.25  4199  4483  3338  2748 14925  2488 134.2 0.224  6243     6 0.000 0.000 0.000 0.000  1.85 53.47  0.42     0  6243   101.3  0.00  0.00  1.09  4.00  4.00  4.00  2.15  1.07  1.07  0.00  0.00  0.00  0.00     0     0     0
 1984 079   118   110  29.0     5  4.25  4195  4483  3497  2776 15080  2488 140.6 0.232  6402     6 0.000 0.000 0.000 0.000  1.82 54.63  0.42     0  6402   101.2  0.00  0.00  1.09  4.00  4.00  4.00  2.17  1.08  1.07  0.00  0.00  0.00  0.00     0     0     0
 1984 080   119   111  29.0     5  4.24  4191  4483  3657  2814 15235  2488 147.0 0.240  6561     6 0.000 0.000 0.000 0.000  1.79 55.73  0.43     0  6561   101.1  0.00  0.00  1.10  4.00  4.00  4.00  2.20  1.09  1.07  0.00  0.00  0.00  0.00     0     0     0
 1984 081   120   112  29.0     5  4.23  4187  4483  3816  2878 15390  2488 153.4 0.248  6721     6 0.000 0.000 0.000 0.000  1.76 56.78  0.44     0  6721   101.0  0.00  0.00  1.10  4.00  4.00  4.00  2.24  1.10  1.08  0.00  0.00  0.00  0.00     0     0     0
 1984 082   121   113  29.0     5  4.21  4182  4483  3975  2938 15545  2488 159.8 0.256  6880     6 0.000 0.000 0.000 0.000  1.73 57.78  0.44     0  6880   100.6  0.00  0.00  1.10  4.00  4.00  4.00  2.29  1.12  1.08  0.00  0.00  0.00  0.00     0     0     0
 1984 083   122   114  29.0     5  4.14  4178  4483  4134  2992 15700  2488 166.2 0.263  7039     6 0.000 0.000 0.000 0.000  1.70 58.73  0.45     0  7039    99.0  0.00  0.00  1.10  4.00  4.00  4.00  2.33  1.13  1.08  0.00  0.00  0.00  0.00     0     0     0
 1984 084   123   115  29.0     5  4.06  4174  4483  4294  3044 15855  2488 172.6 0.271  7198     6 0.000 0.000 0.000 0.000  1.67 59.65  0.45     0  7198    97.3  0.00  0.00  1.10  4.00  4.00  4.00  2.37  1.14  1.09  0.00  0.00  0.00  0.00     0     0     0
 1984 085   124   116  29.0     5  3.98  4170  4483  4453  3097 16010  2488 179.0 0.278  7358     6 0.000 0.000 0.000 0.000  1.64 60.52  0.46     0  7358    95.5  0.00  0.00  1.10  4.00  4.00  4.00  2.41  1.16  1.09  0.00  0.00  0.00  0.00     0     0     0
 1984 086   125   117  29.0     5  3.90  4166  4483  4612  3160 16165  2488 185.4 0.285  7517     6 0.000 0.000 0.000 0.000  1.61 61.36  0.46     0  7517    93.6  0.00  0.00  1.10  4.00  4.00  4.00  2.46  1.17  1.09  0.01  0.00  0.00  0.00     0     0     0
 1984 087   126   118  29.0     5  3.81  4162  4483  4771  3223 16320  2488 191.8 0.292  7676     6 0.000 0.000 0.000 0.000  1.58 62.16  0.47     0  7676    91.5  0.00  0.00  1.10  4.00  4.00  4.00  2.51  1.19  1.10  0.01  0.00  0.00  0.00     0     0     0
 1984 088   127   119  29.0     5  3.71  4157  4483  4930  3260 16475  2488 198.2 0.299  7835     6 0.000 0.000 0.000 0.000  1.55 62.93  0.48     0  7835    89.3  0.00  0.00  1.10  4.00  4.00  4.00  2.55  1.20  1.10  0.01  0.00  0.00  0.00     0     0     0
 1984 089   128   120  29.0     5  3.62  4153  4483  5090  3300 16630  2488 204.6 0.306  7994     6 0.000 0.000 0.000 0.000  1.52 63.66  0.48     0  7994    87.1  0.00  0.00  1.10  4.00  4.00  4.00  2.59  1.21  1.10  0.01  0.00  0.00  0.00     0     0     0
 1984 090   129   121  29.0     5  3.51  4149  4483  5249  3350 16785  2488 211.0 0.313  8154     6 0.000 0.000 0.000 0.000  1.49 64.37  0.49     0  8154    84.6  0.00  0.00  1.10  4.00  4.00  4.00  2.64  1.22  1.10  0.01  0.00  0.00  0.00     0     0     0
 1984 091   130   122  29.0     5  3.41  4145  4483  5408  3400 16940  2488 217.4 0.319  8313     6 0.000 0.000 0.000 0.000  1.45 65.06  0.49     0  8313    82.2  0.00  0.00  1.10  4.00  4.00  4.00  2.69  1.24  1.10  0.01  0.00  0.00  0.00     0     0     0
 1984 092   131   123  29.0     5  3.29  4141  4483  5567  3448 17095  2488 223.8 0.326  8472     6 0.000 0.000 0.000 0.000  1.14 65.71  0.50     0  8472    79.5  0.00  0.00  1.10  4.00  4.00  4.00  2.74  1.25  1.11  0.01  0.00  0.00  0.00     0     0     0
 1984 093   132   124  29.0     5  3.18  4137  4483  5726  3471 17251  2488 230.2 0.332  8631     6 0.000 0.000 0.000 0.000  1.11 66.35  0.50     0  8631    76.8  0.00  0.00  1.10  4.00  4.00  4.00  2.76  1.26  1.10  0.01  0.00  0.00  0.00     0     0     0
 1984 094   133   125  29.0     5  3.05  4132  4483  5886  3520 17406  2488 236.6 0.338  8791     6 0.000 0.000 0.000 0.000  1.10 66.96  0.51     0  8791    73.9  0.00  0.00  1.10  3.98  4.00  4.00  2.82  1.27  1.11  0.01  0.00  0.00  0.00     0     0     0
 1984 095   134   126  29.0     5  2.93  4128  4483  6045  3558 17561  2488 243.0 0.344  8950     6 0.000 0.177 0.000 0.000  1.08 67.54  0.51     0  8950    70.9  0.00  0.00  1.10  3.96  4.00  4.00  2.87  1.29  1.11  0.01  0.00  0.00  0.00     0     0     0
 1984 096   135   127  29.0     5  2.79  4124  4483  6185  3585 17697  2488 248.6 0.350  9090     6 0.219 0.480 0.000 0.000  1.07 68.04  0.51     0  9090    67.7  0.00  0.00  1.10  3.94  4.00  4.00  2.90  1.30  1.11  0.01  0.00  0.00  0.00     0     0     0
 1984 097   136   128  29.0     5  2.65  4120  4483  6317  3589 17824  2488 253.9 0.354  9221     6 0.316 0.545 0.000 0.000  1.05 68.50  0.52     0  9221    64.3  0.00  0.00  1.10  3.92  4.00  4.00  2.91  1.30  1.11  0.01  0.00  0.00  0.00     0     0     0
 1984 098   137   129  29.0     5  2.50  4116  4483  6447  3591 17950  2488 259.1 0.359  9351     6 0.333 0.556 0.000 0.000  1.03 68.94  0.52     0  9351    60.8  0.00  0.00  1.10  4.00  4.00  4.00  2.92  1.30  1.10  0.01  0.00  0.00  0.00     0     0     0
 1984 099   138   130  29.0     5  2.35  4112  4483  6606  3610 18105  2488 265.5 0.365  9511     6 0.000 0.080 0.000 0.000  1.01 69.46  0.53     0  9511    57.1  0.00  0.00  1.10  4.00  4.00  4.00  2.95  1.31  1.10  0.01  0.00  0.00  0.00     0     0     0
 1984 100   139   131  29.0     5  2.18  4108  4483  6765  3647 18260  2488 271.9 0.370  9670     6 0.000 0.000 0.000 0.000  1.00 69.96  0.53     0  9670    53.2  0.00  0.00  1.10  4.00  4.00  4.00  3.00  1.32  1.11  0.01  0.00  0.00  0.00     0     0     0
 1984 101   140   132  29.0     5  2.18  4108  4483  6765  3647 18260  2488 271.9 0.370  9670     6 0.000 0.000 0.000 0.000  1.00 69.96  0.53     0  9670    53.2  0.00  0.00  1.10  3.98  4.00  4.00  3.06  1.34  1.11  0.01  0.00  0.00  0.00     0     0     0
 1984 102   141   133  29.0     5  2.18  4108  4483  6765  3647 18260  2488 271.9 0.370  9670     6 0.000 0.000 0.000 0.000  1.00 69.96  0.53     0  9670    53.2  0.00  0.00  1.10  4.00  4.00  4.00  3.12  1.36  1.11  0.01  0.00  0.00  0.00     0     0     0
 1984 103   142   134  29.0     5  2.18  4108  4483  6765  3647 18260  2488 271.9 0.370  9670     6 0.000 0.000 0.000 0.000  1.00 69.96  0.53     0  9670    53.2  0.00  0.00  1.10  4.00  4.00  4.00  3.18  1.38  1.12  0.02  0.00  0.00  0.00     0     0     0
 1984 104   143   135  29.0     5  2.18  4108  4483  6765  3647 18260  2488 271.9 0.370  9670     6 0.000 0.000 0.000 0.000  1.00 69.96  0.53     0  9670    53.2  0.00  0.00  0.05  4.00  4.00  4.00  3.18  1.38  1.12  0.02  0.00  0.00  0.00     0     0     0
