*SOIL NITROGEN DAILY OUTPUT FILE

*RUN   1        :  0-0-0 NPK               
 MODEL          : RICER020 - RICE      
 EXPERIMENT     : DTSP8502 RI     DTSP8502RI Effects of appl. N & envir. on rice
 TREATMENT  1   :  0-0-0 NPK               

@YEAR DOY   DAS  NAPC  NI#M    NLCC   NIAD   NOAD  NITD  NHTD  NI1D  NI2D  NI3D  NI4D  NI5D  NI6D  NI7D  NI8D  NI9D  NI10  NH1D  NH2D  NH3D  NH4D  NH5D  NH6D  NH7D  NH8D  NH9D  NH10
 1985 246     0     0     0     0.0   35.8   5340  12.6  23.2   5.6   2.9   1.1   0.7   0.7   0.0   0.0   0.0   0.0   0.0   5.1   4.1   2.9   2.6   2.6  0.00  0.00  0.00  0.00  0.00
 1985 249     3     0     0     0.0   35.7   5339  16.8  18.9   6.8   3.5   1.6   1.2   1.2   0.0   0.0   0.0   0.0   0.0   3.6   3.2   2.4   2.3   2.2  0.00  0.00  0.00  0.00  0.00
 1985 252     6     0     0     0.0   35.7   5338  19.7  16.1   7.5   3.9   2.0   1.5   1.5   0.0   0.0   0.0   0.0   0.0   2.9   2.6   2.2   2.0   1.9  0.00  0.00  0.00  0.00  0.00
 1985 255     9     0     0     0.0   35.8   5337  20.6  15.2   7.9   4.1   2.1   1.6   1.6   0.0   0.0   0.0   0.0   0.0   2.6   2.2   2.2   2.0   1.9  0.00  0.00  0.00  0.00  0.00
 1985 258    12     0     0     0.0   35.2   5336  20.1  15.1   7.8   3.9   2.0   1.6   1.6   0.0   0.0   0.0   0.0   0.0   2.3   2.0   2.2   2.1   1.9  0.00  0.00  0.00  0.00  0.00
 1985 261    15     0     0     0.0   32.7   5336  18.0  14.7   7.1   3.1   1.9   1.6   1.5   0.0   0.0   0.0   0.0   0.0   2.1   1.7   2.3   2.2   2.0  0.00  0.00  0.00  0.00  0.00
 1985 264    18     0     0     0.0   29.6   5335  15.3  14.3   5.8   2.1   1.8   1.5   1.5   0.0   0.0   0.0   0.0   0.0   1.8   1.5   2.3   2.2   2.0  0.00  0.00  0.00  0.00  0.00
 1985 267    21     0     0     0.0   27.2   5334  13.2  14.1   5.7   1.2   1.5   1.4   1.4   0.0   0.0   0.0   0.0   0.0   1.8   1.4   2.2   2.3   2.0  0.00  0.00  0.00  0.00  0.00
 1985 270    24     0     0     0.0   23.8   5333  10.2  13.7   3.2   0.9   1.3   1.3   1.4   0.0   0.0   0.0   0.0   0.0   1.4   1.5   2.1   2.3   2.0  0.00  0.00  0.00  0.00  0.00
 1985 273    27     0     0     0.0   22.0   5332   8.6  13.4   1.8   1.0   1.1   1.2   1.3   0.0   0.0   0.0   0.0   0.0   1.6   1.5   1.9   2.2   2.0  0.00  0.00  0.00  0.00  0.00
 1985 276    30     0     0     0.0   20.6   5332   8.2  12.4   1.9   1.0   1.0   1.1   1.1   0.0   0.0   0.0   0.0   0.0   1.6   1.4   1.6   2.2   1.9  0.00  0.00  0.00  0.00  0.00
 1985 279    33     0     0     0.0   19.9   5331   8.1  11.8   2.1   1.0   1.0   1.0   1.0   0.0   0.0   0.0   0.0   0.0   1.7   1.4   1.4   2.1   1.8  0.00  0.00  0.00  0.00  0.00
 1985 282    36     0     0     0.0   19.3   5331   8.0  11.4   2.2   1.0   1.0   1.0   1.0   0.0   0.0   0.0   0.0   0.0   1.7   1.3   1.4   2.0   1.7  0.00  0.00  0.00  0.00  0.00
 1985 285    39     0     0     0.0   19.3   5330   8.4  10.9   2.5   1.1   1.0   1.1   1.0   0.0   0.0   0.0   0.0   0.0   1.7   1.4   1.4   1.7   1.5  0.00  0.00  0.00  0.00  0.00
 1985 288    42     0     0     0.0   17.1   5329   6.7  10.5   0.7   0.9   1.0   1.0   1.0   0.0   0.0   0.0   0.0   0.0   1.4   1.5   1.4   1.6   1.5  0.00  0.00  0.00  0.00  0.00
 1985 291    45     0     0     0.0   17.1   5328   7.0  10.1   0.9   1.0   1.0   1.0   1.0   0.0   0.0   0.0   0.0   0.0   1.6   1.2   1.4   1.5   1.5  0.00  0.00  0.00  0.00  0.00
 1985 294    48     0     0     0.0   16.9   5328   6.6  10.3   1.1   0.7   0.9   1.0   1.0   0.0   0.0   0.0   0.0   0.0   1.6   1.3   1.4   1.5   1.5  0.00  0.00  0.00  0.00  0.00
 1985 297    51     0     0     0.0   16.9   5327   6.7  10.1   0.5   0.9   1.1   1.0   1.0   0.0   0.0   0.0   0.0   0.0   1.2   1.5   1.3   1.5   1.5  0.00  0.00  0.00  0.00  0.00
 1985 300    54     0     0     0.0   16.9   5326   7.0   9.9   0.7   1.0   1.0   1.0   1.0   0.0   0.0   0.0   0.0   0.0   1.3   1.3   1.3   1.5   1.5  0.00  0.00  0.00  0.00  0.00
 1985 303    57     0     0     0.0   16.8   5326   6.9   9.8   0.8   1.0   1.0   1.0   1.0   0.0   0.0   0.0   0.0   0.0   1.4   1.3   1.3   1.5   1.5  0.00  0.00  0.00  0.00  0.00
 1985 306    60     0     0     0.0   17.0   5325   7.0  10.0   1.0   1.0   0.9   1.0   1.0   0.0   0.0   0.0   0.0   0.0   1.5   1.3   1.3   1.5   1.5  0.00  0.00  0.00  0.00  0.00
 1985 309    63     0     0     0.0   17.0   5325   7.2   9.8   1.0   1.0   1.0   1.0   1.0   0.0   0.0   0.0   0.0   0.0   1.5   1.2   1.3   1.4   1.5  0.00  0.00  0.00  0.00  0.00
 1985 312    66     0     0     0.0   16.8   5324   7.3   9.4   1.1   1.1   1.0   1.0   1.0   0.0   0.0   0.0   0.0   0.0   1.6   1.2   1.2   1.3   1.5  0.00  0.00  0.00  0.00  0.00
 1985 315    69     0     0     0.0   16.5   5324   7.5   9.0   1.2   1.1   1.0   1.0   1.0   0.0   0.0   0.0   0.0   0.0   1.6   1.1   1.1   1.2   1.4  0.00  0.00  0.00  0.00  0.00
 1985 318    72     0     0     0.0   14.6   5324   6.3   8.3   0.6   0.5   1.0   1.0   1.0   0.0   0.0   0.0   0.0   0.0   1.1   1.2   1.1   1.1   1.3  0.00  0.00  0.00  0.00  0.00
 1985 321    75     0     0     0.0   14.8   5323   6.4   8.4   0.7   0.6   1.0   1.0   1.0   0.0   0.0   0.0   0.0   0.0   1.3   1.2   1.1   1.1   1.2  0.00  0.00  0.00  0.00  0.00

*RUN   2        :   38 kg ha-1 of applied N
 MODEL          : RICER020 - RICE      
 EXPERIMENT     : DTSP8502 RI     DTSP8502RI Effects of appl. N & envir. on rice
 TREATMENT  2   :   38 kg ha-1 of applied N

@YEAR DOY   DAS  NAPC  NI#M    NLCC   NIAD   NOAD  NITD  NHTD  NI1D  NI2D  NI3D  NI4D  NI5D  NI6D  NI7D  NI8D  NI9D  NI10  NH1D  NH2D  NH3D  NH4D  NH5D  NH6D  NH7D  NH8D  NH9D  NH10
 1985 246     0    19     1     0.0   50.2   5340  10.2  39.9   3.0   1.6   1.2   1.1   1.1   0.0   0.0   0.0   0.0   0.0  31.6   3.2   2.6   2.6   2.6  0.00  0.00  0.00  0.00  0.00
 1985 249     3    19     1     0.0   49.8   5339  31.7  18.2  29.5   2.0   1.6   1.6   1.6   0.0   0.0   0.0   0.0   0.0   4.4   2.7   2.2   2.3   2.2  0.00  0.00  0.00  0.00  0.00
 1985 252     6    19     1     0.0   50.0   5338  34.4  15.6  30.3   2.3   2.0   1.9   1.9   0.0   0.0   0.0   0.0   0.0   3.4   2.2   2.0   2.0   2.0  0.00  0.00  0.00  0.00  0.00
 1985 255     9    19     1     0.0   50.2   5337  35.3  14.9  30.8   2.5   2.0   2.0   2.0   0.0   0.0   0.0   0.0   0.0   2.9   2.0   2.0   2.0   1.9  0.00  0.00  0.00  0.00  0.00
 1985 258    12    19     1     0.0   49.8   5336  34.9  14.9  30.4   2.5   2.0   2.0   2.0   0.0   0.0   0.0   0.0   0.0   2.6   1.9   2.1   2.1   2.0  0.00  0.00  0.00  0.00  0.00
 1985 261    15    19     1     0.0   47.4   5336  32.8  14.7  28.8   2.1   1.8   1.9   1.9   0.0   0.0   0.0   0.0   0.0   2.3   1.7   2.2   2.2   2.0  0.00  0.00  0.00  0.00  0.00
 1985 264    18    19     1     0.0   44.5   5335  29.9  14.5  26.4   1.6   1.7   1.9   1.9   0.0   0.0   0.0   0.0   0.0   2.1   1.6   2.2   2.2   2.1  0.00  0.00  0.00  0.00  0.00
 1985 267    21    19     1     0.0   41.9   5334  27.7  14.2  25.5   0.9   1.5   1.8   1.8   0.0   0.0   0.0   0.0   0.0   2.0   1.5   2.1   2.3   2.1  0.00  0.00  0.00  0.00  0.00
 1985 270    24    19     1     0.0   36.7   5333  22.8  14.0  19.6   0.9   1.3   1.7   1.7   0.0   0.0   0.0   0.0   0.0   1.7   1.5   2.0   2.3   2.1  0.00  0.00  0.00  0.00  0.00
 1985 273    27    19     1     0.0   32.2   5332  18.8  13.4  14.8   1.0   1.1   1.5   1.6   0.0   0.0   0.0   0.0   0.0   1.4   1.5   1.9   2.3   2.1  0.00  0.00  0.00  0.00  0.00
 1985 276    30    38     2     0.0   49.4   5332  18.0  31.4  14.7   1.0   1.1   1.3   1.4   0.0   0.0   0.0   0.0   0.0  28.5   1.5   1.6   2.1   1.9  0.00  0.00  0.00  0.00  0.00
 1985 279    33    38     2     0.0   48.3   5331  34.3  14.0  38.6   1.0   1.0   1.1   1.2   0.0   0.0   0.0   0.0   0.0   4.9   1.5   1.4   2.0   1.8  0.00  0.00  0.00  0.00  0.00
 1985 282    36    38     2     0.0   47.5   5330  34.1  13.4  39.0   1.0   1.0   1.0   1.0   0.0   0.0   0.0   0.0   0.0   4.7   1.5   1.4   1.9   1.6  0.00  0.00  0.00  0.00  0.00
 1985 285    39    38     2     0.0   47.0   5330  35.0  12.0  40.3   1.1   1.0   1.0   1.0   0.0   0.0   0.0   0.0   0.0   3.6   1.5   1.4   1.6   1.5  0.00  0.00  0.00  0.00  0.00
 1985 288    42    38     2     0.0   36.7   5329  25.9  10.8  27.5   1.0   1.1   1.0   1.0   0.0   0.0   0.0   0.0   0.0   2.0   1.5   1.4   1.5   1.5  0.00  0.00  0.00  0.00  0.00
 1985 291    45    38     2     0.0   30.4   5328  20.4  10.0  19.9   0.9   1.1   1.0   1.0   0.0   0.0   0.0   0.0   0.0   1.5   1.3   1.3   1.5   1.5  0.00  0.00  0.00  0.00  0.00
 1985 294    48    38     2     0.0   27.3   5327  17.0  10.3  15.1   1.0   1.0   1.0   1.0   0.0   0.0   0.0   0.0   0.0   1.5   1.4   1.3   1.5   1.5  0.00  0.00  0.00  0.00  0.00
 1985 297    51    38     2     0.0   23.6   5326  13.2  10.4   9.6   0.9   1.0   1.0   1.0   0.0   0.0   0.0   0.0   0.0   1.6   1.5   1.3   1.5   1.5  0.00  0.00  0.00  0.00  0.00
 1985 300    54    38     2     0.0   22.3   5326  12.5   9.9   9.2   0.7   1.0   1.0   1.0   0.0   0.0   0.0   0.0   0.0   1.6   1.2   1.3   1.5   1.5  0.00  0.00  0.00  0.00  0.00
 1985 303    57    38     2     0.0   22.6   5325  12.6  10.1   9.4   0.8   0.9   1.0   1.0   0.0   0.0   0.0   0.0   0.0   1.7   1.3   1.3   1.5   1.5  0.00  0.00  0.00  0.00  0.00
 1985 306    60    38     2     0.0   22.9   5324  12.7  10.2   9.2   0.9   1.0   0.9   1.0   0.0   0.0   0.0   0.0   0.0   1.7   1.4   1.3   1.5   1.5  0.00  0.00  0.00  0.00  0.00
 1985 309    63    38     2     0.0   23.0   5324  13.2   9.8   9.3   1.1   1.0   1.0   1.0   0.0   0.0   0.0   0.0   0.0   1.7   1.4   1.2   1.4   1.4  0.00  0.00  0.00  0.00  0.00
 1985 312    66    38     2     0.0   22.9   5323  13.4   9.5   9.3   1.2   1.1   1.0   1.0   0.0   0.0   0.0   0.0   0.0   1.8   1.3   1.1   1.3   1.4  0.00  0.00  0.00  0.00  0.00
 1985 315    69    38     2     0.0   22.7   5323  13.7   9.0   9.4   1.3   1.1   1.0   1.0   0.0   0.0   0.0   0.0   0.0   1.8   1.3   1.1   1.2   1.3  0.00  0.00  0.00  0.00  0.00
 1985 318    72    38     2     0.0   14.4   5323   6.4   7.9   1.1   0.4   1.0   1.0   1.0   0.0   0.0   0.0   0.0   0.0   0.6   1.3   1.0   1.1   1.2  0.00  0.00  0.00  0.00  0.00
 1985 321    75    38     2     0.0   14.0   5322   5.8   8.2   0.0   0.5   1.0   1.0   1.0   0.0   0.0   0.0   0.0   0.0   1.0   1.4   1.1   1.1   1.1  0.00  0.00  0.00  0.00  0.00

*RUN   3        :   75 kg ha-1 of applied N
 MODEL          : RICER020 - RICE      
 EXPERIMENT     : DTSP8502 RI     DTSP8502RI Effects of appl. N & envir. on rice
 TREATMENT  3   :   75 kg ha-1 of applied N

@YEAR DOY   DAS  NAPC  NI#M    NLCC   NIAD   NOAD  NITD  NHTD  NI1D  NI2D  NI3D  NI4D  NI5D  NI6D  NI7D  NI8D  NI9D  NI10  NH1D  NH2D  NH3D  NH4D  NH5D  NH6D  NH7D  NH8D  NH9D  NH10
 1985 246     0    37     1     0.0   68.2   5340  10.2  57.9   3.0   1.6   1.2   1.1   1.1   0.0   0.0   0.0   0.0   0.0  57.1   3.2   2.6   2.6   2.6  0.00  0.00  0.00  0.00  0.00
 1985 249     3    37     1     0.0   67.7   5339  48.2  19.4  53.0   2.0   1.6   1.6   1.6   0.0   0.0   0.0   0.0   0.0   6.2   2.7   2.2   2.3   2.2  0.00  0.00  0.00  0.00  0.00
 1985 252     6    37     1     0.0   67.9   5338  51.6  16.2  54.8   2.3   2.0   1.9   1.9   0.0   0.0   0.0   0.0   0.0   4.2   2.2   2.0   2.0   2.0  0.00  0.00  0.00  0.00  0.00
 1985 255     9    37     1     0.0   68.1   5337  52.8  15.2  55.5   2.5   2.0   2.0   2.0   0.0   0.0   0.0   0.0   0.0   3.4   2.0   2.0   2.0   1.9  0.00  0.00  0.00  0.00  0.00
 1985 258    12    37     1     0.0   67.8   5336  52.6  15.2  55.4   2.5   2.0   2.0   2.0   0.0   0.0   0.0   0.0   0.0   2.9   1.9   2.1   2.1   2.0  0.00  0.00  0.00  0.00  0.00
 1985 261    15    37     1     0.0   65.4   5336  50.5  14.9  53.8   2.1   1.9   1.9   1.9   0.0   0.0   0.0   0.0   0.0   2.5   1.7   2.2   2.2   2.0  0.00  0.00  0.00  0.00  0.00
 1985 264    18    37     1     0.0   62.3   5335  47.6  14.8  51.2   1.6   1.7   1.9   1.9   0.0   0.0   0.0   0.0   0.0   2.3   1.6   2.2   2.2   2.1  0.00  0.00  0.00  0.00  0.00
 1985 267    21    37     1     0.0   59.4   5334  45.0  14.4  49.9   1.0   1.5   1.8   1.8   0.0   0.0   0.0   0.0   0.0   2.1   1.5   2.1   2.3   2.1  0.00  0.00  0.00  0.00  0.00
 1985 270    24    37     1     0.0   54.1   5333  40.0  14.2  43.9   0.9   1.3   1.7   1.7   0.0   0.0   0.0   0.0   0.0   1.9   1.5   2.1   2.3   2.1  0.00  0.00  0.00  0.00  0.00
 1985 273    27    37     1     0.0   49.6   5332  36.1  13.5  39.3   1.0   1.1   1.6   1.6   0.0   0.0   0.0   0.0   0.0   1.7   1.4   1.9   2.3   2.1  0.00  0.00  0.00  0.00  0.00
 1985 276    30    74     2     0.0   84.6   5332  35.0  49.6  39.0   0.9   1.0   1.4   1.4   0.0   0.0   0.0   0.0   0.0  54.2   1.5   1.6   2.2   1.9  0.00  0.00  0.00  0.00  0.00
 1985 279    33    74     2     0.0   83.7   5331  68.5  15.2  87.1   1.0   1.0   1.1   1.2   0.0   0.0   0.0   0.0   0.0   6.5   1.5   1.4   2.0   1.8  0.00  0.00  0.00  0.00  0.00
 1985 282    36    74     2     0.0   82.7   5330  68.2  14.4  87.6   1.0   1.0   1.0   1.0   0.0   0.0   0.0   0.0   0.0   6.1   1.5   1.4   1.8   1.6  0.00  0.00  0.00  0.00  0.00
 1985 285    39    74     2     0.0   82.3   5330  69.9  12.5  89.7   1.1   1.0   1.1   1.0   0.0   0.0   0.0   0.0   0.0   4.3   1.5   1.4   1.5   1.5  0.00  0.00  0.00  0.00  0.00
 1985 288    42    74     2     0.0   71.7   5329  60.6  11.1  76.5   1.0   1.1   1.0   1.0   0.0   0.0   0.0   0.0   0.0   2.5   1.5   1.4   1.5   1.5  0.00  0.00  0.00  0.00  0.00
 1985 291    45    74     2     0.0   65.3   5328  55.0  10.3  69.3   0.9   1.0   1.0   1.0   0.0   0.0   0.0   0.0   0.0   2.0   1.2   1.3   1.5   1.5  0.00  0.00  0.00  0.00  0.00
 1985 294    48    74     2     0.0   62.0   5327  51.5  10.5  63.9   1.0   1.1   1.0   1.0   0.0   0.0   0.0   0.0   0.0   1.9   1.4   1.3   1.5   1.5  0.00  0.00  0.00  0.00  0.00
 1985 297    51    74     2     0.0   58.2   5326  47.7  10.6  58.2   1.0   1.1   1.0   1.0   0.0   0.0   0.0   0.0   0.0   1.8   1.5   1.3   1.5   1.5  0.00  0.00  0.00  0.00  0.00
 1985 300    54    74     2     0.0   56.1   5326  46.0  10.0  56.6   0.8   1.0   1.0   1.0   0.0   0.0   0.0   0.0   0.0   1.8   1.2   1.3   1.5   1.5  0.00  0.00  0.00  0.00  0.00
 1985 303    57    74     2     0.0   56.4   5325  46.2  10.2  56.8   0.9   0.9   1.0   1.0   0.0   0.0   0.0   0.0   0.0   1.8   1.3   1.3   1.5   1.5  0.00  0.00  0.00  0.00  0.00
 1985 306    60    74     2     0.0   56.6   5324  46.4  10.2  56.5   1.0   1.0   1.1   1.0   0.0   0.0   0.0   0.0   0.0   1.8   1.4   1.3   1.4   1.5  0.00  0.00  0.00  0.00  0.00
 1985 309    63    74     2     0.0   56.7   5324  46.7   9.9  56.6   1.1   1.1   1.1   1.0   0.0   0.0   0.0   0.0   0.0   1.8   1.4   1.2   1.3   1.5  0.00  0.00  0.00  0.00  0.00
 1985 312    66    74     2     0.0   56.6   5323  47.0   9.6  56.7   1.2   1.1   1.0   1.0   0.0   0.0   0.0   0.0   0.0   1.9   1.3   1.1   1.2   1.5  0.00  0.00  0.00  0.00  0.00
 1985 315    69    74     2     0.0   56.4   5323  47.2   9.1  56.8   1.3   1.1   1.0   1.0   0.0   0.0   0.0   0.0   0.0   1.9   1.3   1.1   1.1   1.4  0.00  0.00  0.00  0.00  0.00
 1985 318    72    74     2     0.0   45.6   5323  37.2   8.4  43.3   0.9   1.1   1.0   1.0   0.0   0.0   0.0   0.0   0.0   1.3   1.3   1.0   1.1   1.3  0.00  0.00  0.00  0.00  0.00
 1985 321    75    74     2     0.0   43.2   5322  34.7   8.6  39.6   1.0   1.1   1.0   1.0   0.0   0.0   0.0   0.0   0.0   1.5   1.4   1.1   1.0   1.2  0.00  0.00  0.00  0.00  0.00

*RUN   4        :  113 kg ha-1 of applied N
 MODEL          : RICER020 - RICE      
 EXPERIMENT     : DTSP8502 RI     DTSP8502RI Effects of appl. N & envir. on rice
 TREATMENT  4   :  113 kg ha-1 of applied N

@YEAR DOY   DAS  NAPC  NI#M    NLCC   NIAD   NOAD  NITD  NHTD  NI1D  NI2D  NI3D  NI4D  NI5D  NI6D  NI7D  NI8D  NI9D  NI10  NH1D  NH2D  NH3D  NH4D  NH5D  NH6D  NH7D  NH8D  NH9D  NH10
 1985 246     0    56     1     0.0   87.2   5340  10.2  76.9   3.0   1.6   1.2   1.1   1.1   0.0   0.0   0.0   0.0   0.0  84.1   3.2   2.6   2.6   2.6  0.00  0.00  0.00  0.00  0.00
 1985 249     3    56     1     0.0   86.6   5339  69.4  17.2  83.0   2.0   1.6   1.6   1.6   0.0   0.0   0.0   0.0   0.0   3.0   2.7   2.2   2.3   2.2  0.00  0.00  0.00  0.00  0.00
 1985 252     6    56     1     0.0   86.8   5338  71.7  15.1  83.2   2.3   2.0   1.9   1.9   0.0   0.0   0.0   0.0   0.0   2.6   2.2   2.0   2.0   2.0  0.00  0.00  0.00  0.00  0.00
 1985 255     9    56     1     0.0   87.0   5337  72.4  14.5  83.4   2.5   2.0   2.0   2.0   0.0   0.0   0.0   0.0   0.0   2.4   2.0   2.0   2.0   1.9  0.00  0.00  0.00  0.00  0.00
 1985 258    12    56     1     0.0   86.8   5336  72.1  14.7  83.0   2.6   2.0   2.0   2.0   0.0   0.0   0.0   0.0   0.0   2.3   1.9   2.1   2.1   2.0  0.00  0.00  0.00  0.00  0.00
 1985 261    15    56     1     0.0   84.4   5336  69.8  14.7  81.0   2.2   1.9   1.9   1.9   0.0   0.0   0.0   0.0   0.0   2.1   1.7   2.2   2.2   2.0  0.00  0.00  0.00  0.00  0.00
 1985 264    18    56     1     0.0   81.3   5335  66.7  14.6  78.3   1.7   1.7   1.9   1.9   0.0   0.0   0.0   0.0   0.0   2.1   1.6   2.2   2.2   2.1  0.00  0.00  0.00  0.00  0.00
 1985 267    21    56     1     0.0   78.2   5334  63.9  14.3  76.6   1.0   1.5   1.8   1.8   0.0   0.0   0.0   0.0   0.0   2.0   1.5   2.1   2.3   2.1  0.00  0.00  0.00  0.00  0.00
 1985 270    24    56     1     0.0   72.8   5333  58.7  14.2  70.4   0.9   1.3   1.7   1.7   0.0   0.0   0.0   0.0   0.0   1.8   1.5   2.1   2.3   2.1  0.00  0.00  0.00  0.00  0.00
 1985 273    27    56     1     0.0   68.8   5332  55.0  13.8  66.1   1.0   1.1   1.6   1.6   0.0   0.0   0.0   0.0   0.0   1.7   1.5   1.9   2.3   2.1  0.00  0.00  0.00  0.00  0.00
 1985 276    30   112     2     0.0  122.3   5332  53.7  68.6  65.6   1.0   1.0   1.4   1.4   0.0   0.0   0.0   0.0   0.0  81.2   1.4   1.6   2.2   2.0  0.00  0.00  0.00  0.00  0.00
 1985 279    33   112     2     0.0  121.4   5331 107.6  13.9 142.5   1.0   1.0   1.1   1.2   0.0   0.0   0.0   0.0   0.0   4.6   1.5   1.4   2.0   1.8  0.00  0.00  0.00  0.00  0.00
 1985 282    36   112     2     0.0  120.3   5330 107.1  13.2 142.8   1.0   1.0   1.0   1.0   0.0   0.0   0.0   0.0   0.0   4.5   1.5   1.4   1.9   1.6  0.00  0.00  0.00  0.00  0.00
 1985 285    39   112     2     0.0  120.0   5330 108.1  11.8 144.0   1.1   1.0   1.0   1.0   0.0   0.0   0.0   0.0   0.0   3.5   1.5   1.4   1.5   1.5  0.00  0.00  0.00  0.00  0.00
 1985 288    42   112     2     0.0  109.4   5329  98.4  11.0 130.1   1.0   1.1   1.0   1.0   0.0   0.0   0.0   0.0   0.0   2.2   1.5   1.4   1.5   1.5  0.00  0.00  0.00  0.00  0.00
 1985 291    45   112     2     0.0  102.9   5328  92.5  10.4 122.7   0.7   1.0   1.0   1.0   0.0   0.0   0.0   0.0   0.0   1.9   1.4   1.3   1.5   1.5  0.00  0.00  0.00  0.00  0.00
 1985 294    48   112     2     0.0   99.6   5327  89.0  10.6 117.3   0.9   1.0   1.0   1.0   0.0   0.0   0.0   0.0   0.0   1.9   1.5   1.3   1.5   1.5  0.00  0.00  0.00  0.00  0.00
 1985 297    51   112     2     0.0   95.8   5326  85.2  10.6 111.5   1.0   1.1   1.0   1.0   0.0   0.0   0.0   0.0   0.0   1.8   1.5   1.3   1.5   1.5  0.00  0.00  0.00  0.00  0.00
 1985 300    54   112     2     0.0   93.8   5325  83.5  10.3 110.0   0.9   0.9   1.0   1.0   0.0   0.0   0.0   0.0   0.0   1.8   1.4   1.3   1.5   1.5  0.00  0.00  0.00  0.00  0.00
 1985 303    57   112     2     0.0   94.4   5325  84.1  10.3 110.3   1.0   1.0   1.0   1.0   0.0   0.0   0.0   0.0   0.0   1.8   1.4   1.3   1.4   1.5  0.00  0.00  0.00  0.00  0.00
 1985 306    60   112     2     0.0   94.4   5324  84.1  10.4 109.9   1.0   1.0   1.1   1.0   0.0   0.0   0.0   0.0   0.0   1.8   1.5   1.3   1.4   1.5  0.00  0.00  0.00  0.00  0.00
 1985 309    63   112     2     0.0   94.6   5324  84.6  10.1 110.0   1.2   1.1   1.1   1.0   0.0   0.0   0.0   0.0   0.0   1.9   1.4   1.2   1.3   1.5  0.00  0.00  0.00  0.00  0.00
 1985 312    66   112     2     0.0   94.3   5323  84.7   9.6 110.1   1.3   1.1   1.0   1.0   0.0   0.0   0.0   0.0   0.0   1.9   1.4   1.1   1.2   1.4  0.00  0.00  0.00  0.00  0.00
 1985 315    69   112     2     0.0   94.1   5323  85.0   9.1 110.2   1.4   1.2   1.0   1.0   0.0   0.0   0.0   0.0   0.0   1.9   1.3   1.1   1.1   1.3  0.00  0.00  0.00  0.00  0.00
 1985 318    72   112     2     0.0   83.2   5323  74.8   8.4  96.2   1.0   1.2   1.0   1.0   0.0   0.0   0.0   0.0   0.0   1.4   1.4   1.0   1.1   1.2  0.00  0.00  0.00  0.00  0.00
 1985 321    75   112     2     0.0   80.8   5322  72.2   8.6  92.9   0.9   1.1   1.1   1.0   0.0   0.0   0.0   0.0   0.0   1.6   1.5   1.1   1.0   1.1  0.00  0.00  0.00  0.00  0.00

*RUN   5        :  150 kg ha-1 of applied N
 MODEL          : RICER020 - RICE      
 EXPERIMENT     : DTSP8502 RI     DTSP8502RI Effects of appl. N & envir. on rice
 TREATMENT  5   :  150 kg ha-1 of applied N

@YEAR DOY   DAS  NAPC  NI#M    NLCC   NIAD   NOAD  NITD  NHTD  NI1D  NI2D  NI3D  NI4D  NI5D  NI6D  NI7D  NI8D  NI9D  NI10  NH1D  NH2D  NH3D  NH4D  NH5D  NH6D  NH7D  NH8D  NH9D  NH10
 1985 246     0    75     1     0.0  106.2   5340  10.2  95.9   3.0   1.6   1.2   1.1   1.1   0.0   0.0   0.0   0.0   0.0 111.0   3.2   2.6   2.6   2.6  0.00  0.00  0.00  0.00  0.00
 1985 249     3    75     1     0.0  105.5   5339  87.7  17.8 109.0   2.0   1.6   1.6   1.6   0.0   0.0   0.0   0.0   0.0   3.9   2.7   2.2   2.3   2.2  0.00  0.00  0.00  0.00  0.00
 1985 252     6    75     1     0.0  105.7   5338  90.3  15.5 109.6   2.3   2.0   1.9   1.9   0.0   0.0   0.0   0.0   0.0   3.1   2.2   2.0   2.0   2.0  0.00  0.00  0.00  0.00  0.00
 1985 255     9    75     1     0.0  105.9   5337  91.1  14.8 109.9   2.5   2.0   2.0   2.0   0.0   0.0   0.0   0.0   0.0   2.7   2.0   2.0   2.0   1.9  0.00  0.00  0.00  0.00  0.00
 1985 258    12    75     1     0.0  105.8   5336  90.9  14.9 109.6   2.6   2.0   2.0   2.0   0.0   0.0   0.0   0.0   0.0   2.5   1.9   2.1   2.1   2.0  0.00  0.00  0.00  0.00  0.00
 1985 261    15    75     1     0.0  103.4   5336  88.6  14.8 107.8   2.2   1.9   1.9   1.9   0.0   0.0   0.0   0.0   0.0   2.3   1.8   2.2   2.2   2.0  0.00  0.00  0.00  0.00  0.00
 1985 264    18    75     1     0.0  100.3   5335  85.6  14.7 105.0   1.7   1.7   1.9   1.9   0.0   0.0   0.0   0.0   0.0   2.2   1.6   2.2   2.2   2.1  0.00  0.00  0.00  0.00  0.00
 1985 267    21    75     1     0.0   97.2   5334  82.8  14.4 103.4   1.0   1.5   1.8   1.8   0.0   0.0   0.0   0.0   0.0   2.1   1.5   2.1   2.3   2.1  0.00  0.00  0.00  0.00  0.00
 1985 270    24    75     1     0.0   92.0   5333  77.8  14.2  97.3   1.0   1.3   1.7   1.7   0.0   0.0   0.0   0.0   0.0   1.9   1.5   2.1   2.3   2.1  0.00  0.00  0.00  0.00  0.00
 1985 273    27    75     1     0.0   87.4   5332  73.6  13.9  92.6   0.9   1.1   1.6   1.6   0.0   0.0   0.0   0.0   0.0   1.8   1.6   1.9   2.3   2.1  0.00  0.00  0.00  0.00  0.00
 1985 276    30   150     2     0.0  160.2   5332  72.5  87.6  92.1   1.0   1.0   1.4   1.4   0.0   0.0   0.0   0.0   0.0 108.2   1.4   1.6   2.2   2.0  0.00  0.00  0.00  0.00  0.00
 1985 279    33   150     2     0.0  159.1   5331 145.7  13.4 196.6   1.0   1.0   1.1   1.2   0.0   0.0   0.0   0.0   0.0   4.0   1.5   1.4   2.0   1.8  0.00  0.00  0.00  0.00  0.00
 1985 282    36   150     2     0.0  158.0   5330 145.2  12.9 196.8   1.1   1.0   1.0   1.0   0.0   0.0   0.0   0.0   0.0   3.9   1.5   1.4   1.8   1.6  0.00  0.00  0.00  0.00  0.00
 1985 285    39   150     2     0.0  157.7   5330 146.1  11.6 197.8   1.1   1.0   1.0   1.0   0.0   0.0   0.0   0.0   0.0   3.2   1.5   1.4   1.5   1.5  0.00  0.00  0.00  0.00  0.00
 1985 288    42   150     2     0.0  147.1   5329 136.2  10.9 183.7   1.0   1.1   1.0   1.0   0.0   0.0   0.0   0.0   0.0   2.1   1.5   1.4   1.5   1.5  0.00  0.00  0.00  0.00  0.00
 1985 291    45   150     2     0.0  140.6   5328 130.4  10.1 176.2   0.9   1.0   1.0   1.0   0.0   0.0   0.0   0.0   0.0   1.8   1.2   1.3   1.5   1.5  0.00  0.00  0.00  0.00  0.00
 1985 294    48   150     2     0.0  137.3   5327 126.8  10.4 170.7   1.0   1.0   1.0   1.0   0.0   0.0   0.0   0.0   0.0   1.8   1.4   1.3   1.5   1.5  0.00  0.00  0.00  0.00  0.00
 1985 297    51   150     2     0.0  133.4   5326 122.9  10.5 164.9   1.1   1.1   1.0   1.0   0.0   0.0   0.0   0.0   0.0   1.8   1.5   1.3   1.5   1.5  0.00  0.00  0.00  0.00  0.00
 1985 300    54   150     2     0.0  131.1   5325 121.1  10.0 162.9   0.8   1.0   1.0   1.0   0.0   0.0   0.0   0.0   0.0   1.8   1.2   1.3   1.5   1.4  0.00  0.00  0.00  0.00  0.00
 1985 303    57   150     2     0.0  131.3   5325 121.2  10.0 163.2   0.9   1.0   1.0   1.0   0.0   0.0   0.0   0.0   0.0   1.8   1.3   1.3   1.4   1.4  0.00  0.00  0.00  0.00  0.00
 1985 306    60   150     2     0.0  131.5   5324 121.4  10.1 162.8   1.0   1.0   1.1   1.0   0.0   0.0   0.0   0.0   0.0   1.8   1.4   1.3   1.4   1.5  0.00  0.00  0.00  0.00  0.00
 1985 309    63   150     2     0.0  131.7   5324 121.8   9.9 162.9   1.2   1.1   1.1   1.0   0.0   0.0   0.0   0.0   0.0   1.8   1.4   1.2   1.3   1.5  0.00  0.00  0.00  0.00  0.00
 1985 312    66   150     2     0.0  131.5   5323 121.9   9.6 163.0   1.3   1.1   1.0   1.0   0.0   0.0   0.0   0.0   0.0   1.9   1.3   1.1   1.2   1.5  0.00  0.00  0.00  0.00  0.00
 1985 315    69   150     2     0.0  131.4   5323 122.3   9.1 163.1   1.3   1.1   1.0   1.0   0.0   0.0   0.0   0.0   0.0   1.9   1.3   1.1   1.1   1.3  0.00  0.00  0.00  0.00  0.00
 1985 318    72   150     2     0.0  120.7   5323 112.2   8.5 149.4   1.0   1.2   1.0   1.0   0.0   0.0   0.0   0.0   0.0   1.4   1.3   1.0   1.1   1.2  0.00  0.00  0.00  0.00  0.00
 1985 321    75   150     2     0.0  118.2   5322 109.6   8.6 146.1   0.9   1.1   1.1   1.0   0.0   0.0   0.0   0.0   0.0   1.6   1.4   1.1   1.0   1.2  0.00  0.00  0.00  0.00  0.00

*RUN   6        :  188 kg ha-1 of applied N
 MODEL          : RICER020 - RICE      
 EXPERIMENT     : DTSP8502 RI     DTSP8502RI Effects of appl. N & envir. on rice
 TREATMENT  6   :  188 kg ha-1 of applied N

@YEAR DOY   DAS  NAPC  NI#M    NLCC   NIAD   NOAD  NITD  NHTD  NI1D  NI2D  NI3D  NI4D  NI5D  NI6D  NI7D  NI8D  NI9D  NI10  NH1D  NH2D  NH3D  NH4D  NH5D  NH6D  NH7D  NH8D  NH9D  NH10
 1985 246     0    94     1     0.0  125.2   5340  10.2 114.9   3.0   1.6   1.2   1.1   1.1   0.0   0.0   0.0   0.0   0.0 138.0   3.2   2.6   2.6   2.6  0.00  0.00  0.00  0.00  0.00
 1985 249     3    94     1     0.0  124.5   5339 106.4  18.2 135.4   2.0   1.6   1.6   1.6   0.0   0.0   0.0   0.0   0.0   4.4   2.7   2.2   2.3   2.2  0.00  0.00  0.00  0.00  0.00
 1985 252     6    94     1     0.0  124.7   5338 109.1  15.7 136.2   2.3   2.0   1.9   1.9   0.0   0.0   0.0   0.0   0.0   3.4   2.2   2.0   2.0   2.0  0.00  0.00  0.00  0.00  0.00
 1985 255     9    94     1     0.0  124.9   5337 110.0  14.9 136.7   2.5   2.0   2.0   2.0   0.0   0.0   0.0   0.0   0.0   2.9   2.0   2.0   2.0   1.9  0.00  0.00  0.00  0.00  0.00
 1985 258    12    94     1     0.0  124.8   5336 109.8  15.0 136.5   2.6   2.0   2.0   2.0   0.0   0.0   0.0   0.0   0.0   2.6   1.9   2.1   2.1   2.0  0.00  0.00  0.00  0.00  0.00
 1985 261    15    94     1     0.0  122.4   5336 107.6  14.8 134.6   2.2   1.9   1.9   1.9   0.0   0.0   0.0   0.0   0.0   2.4   1.8   2.2   2.2   2.0  0.00  0.00  0.00  0.00  0.00
 1985 264    18    94     1     0.0  119.3   5335 104.5  14.8 131.9   1.7   1.7   1.9   1.9   0.0   0.0   0.0   0.0   0.0   2.2   1.6   2.2   2.2   2.1  0.00  0.00  0.00  0.00  0.00
 1985 267    21    94     1     0.0  116.2   5334 101.8  14.4 130.3   1.0   1.5   1.8   1.8   0.0   0.0   0.0   0.0   0.0   2.1   1.5   2.1   2.3   2.1  0.00  0.00  0.00  0.00  0.00
 1985 270    24    94     1     0.0  111.0   5333  96.7  14.3 124.1   1.0   1.3   1.7   1.7   0.0   0.0   0.0   0.0   0.0   1.9   1.5   2.1   2.3   2.1  0.00  0.00  0.00  0.00  0.00
 1985 273    27    94     1     0.0  106.4   5332  92.5  13.9 119.5   0.9   1.1   1.6   1.6   0.0   0.0   0.0   0.0   0.0   1.8   1.6   1.9   2.3   2.1  0.00  0.00  0.00  0.00  0.00
 1985 276    30   188     2     0.0  198.2   5332  91.5 106.6 118.9   1.1   1.0   1.4   1.4   0.0   0.0   0.0   0.0   0.0 135.1   1.5   1.6   2.2   2.0  0.00  0.00  0.00  0.00  0.00
 1985 279    33   188     2     0.0  197.1   5331 183.1  14.0 249.5   1.0   1.1   1.1   1.2   0.0   0.0   0.0   0.0   0.0   4.8   1.5   1.4   2.0   1.8  0.00  0.00  0.00  0.00  0.00
 1985 282    36   188     2     0.0  196.0   5330 182.6  13.4 249.8   1.0   1.0   1.0   1.0   0.0   0.0   0.0   0.0   0.0   4.7   1.5   1.4   1.9   1.6  0.00  0.00  0.00  0.00  0.00
 1985 285    39   188     2     0.0  195.7   5330 183.7  11.9 251.2   1.1   1.0   1.1   1.0   0.0   0.0   0.0   0.0   0.0   3.6   1.5   1.4   1.5   1.5  0.00  0.00  0.00  0.00  0.00
 1985 288    42   188     2     0.0  185.0   5329 174.0  11.0 237.3   1.0   1.1   1.1   1.0   0.0   0.0   0.0   0.0   0.0   2.3   1.5   1.4   1.5   1.5  0.00  0.00  0.00  0.00  0.00
 1985 291    45   188     2     0.0  178.5   5328 168.2  10.2 230.3   0.7   1.0   1.0   1.0   0.0   0.0   0.0   0.0   0.0   2.0   1.2   1.3   1.5   1.5  0.00  0.00  0.00  0.00  0.00
 1985 294    48   188     2     0.0  175.1   5327 164.7  10.5 224.8   0.8   1.1   1.0   1.0   0.0   0.0   0.0   0.0   0.0   1.9   1.4   1.3   1.5   1.5  0.00  0.00  0.00  0.00  0.00
 1985 297    51   188     2     0.0  171.3   5326 160.8  10.6 218.9   1.0   1.1   1.0   1.0   0.0   0.0   0.0   0.0   0.0   1.8   1.5   1.3   1.5   1.5  0.00  0.00  0.00  0.00  0.00
 1985 300    54   188     2     0.0  168.4   5325 158.5  10.0 216.3   0.7   1.0   1.0   1.0   0.0   0.0   0.0   0.0   0.0   1.8   1.2   1.3   1.5   1.4  0.00  0.00  0.00  0.00  0.00
 1985 303    57   188     2     0.0  168.8   5325 158.6  10.2 216.6   0.8   0.9   1.0   1.0   0.0   0.0   0.0   0.0   0.0   1.8   1.3   1.3   1.5   1.4  0.00  0.00  0.00  0.00  0.00
 1985 306    60   188     2     0.0  169.0   5324 158.8  10.2 216.1   0.9   1.0   1.1   1.0   0.0   0.0   0.0   0.0   0.0   1.8   1.4   1.3   1.5   1.5  0.00  0.00  0.00  0.00  0.00
 1985 309    63   188     2     0.0  169.1   5324 159.1  10.0 216.2   1.1   1.1   1.1   1.0   0.0   0.0   0.0   0.0   0.0   1.8   1.4   1.2   1.3   1.5  0.00  0.00  0.00  0.00  0.00
 1985 312    66   188     2     0.0  169.1   5323 159.5   9.7 216.2   1.2   1.1   1.1   1.0   0.0   0.0   0.0   0.0   0.0   1.9   1.3   1.1   1.3   1.5  0.00  0.00  0.00  0.00  0.00
 1985 315    69   188     2     0.0  168.9   5323 159.7   9.2 216.3   1.3   1.2   1.0   1.0   0.0   0.0   0.0   0.0   0.0   1.9   1.3   1.1   1.2   1.3  0.00  0.00  0.00  0.00  0.00
 1985 318    72   188     2     0.0  158.6   5323 150.1   8.5 203.1   1.0   1.2   1.0   1.0   0.0   0.0   0.0   0.0   0.0   1.4   1.3   1.0   1.1   1.2  0.00  0.00  0.00  0.00  0.00
 1985 321    75   188     2     0.0  156.1   5322 147.4   8.7 199.7   0.9   1.1   1.1   1.0   0.0   0.0   0.0   0.0   0.0   1.6   1.4   1.1   1.0   1.2  0.00  0.00  0.00  0.00  0.00
