*SOIL-PLANT-ATMOSPHERE MODULE OUTPUT FILE

*DSSAT Cropping System Model Ver. 4.6.1.000 -release      APR 22, 2019; 09:45:14
                                                                                
*RUN   1        : Sim1                      MZCER046 UINT1601    1              
 MODEL          : MZCER046 - Maize                                              
 EXPERIMENT     : UINT1601 MZ N TRACK                                           
 DATA PATH      :                                                               
 TREATMENT  1   : Sim1                      MZCER046                            
  
!                                                                                                                                                Soil evaporation (mm/d) by soil depth (cm):
!                                                                                                                                                0-5    5-15   15-30   30-45   45-60   60-90  90-120 120-150
@YEAR DOY   DAS   SRAA  TMAXA  TMINA   EOAA   EOPA   EOSA   ETAA   EPAA   ESAA   EFAA   EMAA    EOAC    ETAC    EPAC    ESAC    EFAC    EMAC    ES1D    ES2D    ES3D    ES4D    ES5D    ES6D    ES7D    ES8D    
 2016 316     1   5.00  13.60   4.40  0.981  0.000  0.981  0.981  0.000  0.981  0.000  0.000    0.98    0.98    0.00    0.98    0.00    0.00   0.033   0.065   0.098   0.098   0.098   0.195   0.196   0.197
 2016 317     2   4.90  17.90   5.00  1.031  0.000  1.031  1.031  0.000  1.031  0.000  0.000    2.01    2.01    0.00    2.01    0.00    0.00   0.035   0.069   0.103   0.103   0.103   0.204   0.206   0.207
 2016 318     3   4.90  11.20  -1.60  0.866  0.000  0.866  0.866  0.000  0.866  0.000  0.000    2.88    2.88    0.00    2.88    0.00    0.00   0.029   0.058   0.087   0.087   0.087   0.172   0.173   0.173
 2016 319     4   4.80  10.60   0.40  0.859  0.000  0.859  0.859  0.000  0.859  0.000  0.000    3.74    3.74    0.00    3.74    0.00    0.00   0.029   0.058   0.087   0.087   0.086   0.170   0.171   0.171
 2016 320     5   4.80  13.80   3.90  0.939  0.000  0.939  0.939  0.000  0.939  0.000  0.000    4.68    4.68    0.00    4.68    0.00    0.00   0.032   0.063   0.095   0.095   0.095   0.186   0.186   0.187
 2016 321     6   4.70  15.70   2.60  0.934  0.000  0.934  0.934  0.000  0.934  0.000  0.000    5.61    5.61    0.00    5.61    0.00    0.00   0.032   0.063   0.095   0.095   0.094   0.185   0.185   0.185
 2016 322     7   4.70  14.90   1.30  0.910  0.000  0.910  0.910  0.000  0.910  0.000  0.000    6.52    6.52    0.00    6.52    0.00    0.00   0.031   0.062   0.092   0.092   0.092   0.180   0.180   0.180
 2016 323     8   4.60  15.60   8.40  0.966  0.000  0.966  0.966  0.000  0.966  0.000  0.000    7.49    7.49    0.00    7.49    0.00    0.00   0.033   0.066   0.098   0.098   0.098   0.191   0.191   0.191
 2016 324     9   4.60  22.90  12.60  1.107  0.000  1.107  1.107  0.000  1.107  0.000  0.000    8.59    8.59    0.00    8.59    0.00    0.00   0.038   0.075   0.113   0.113   0.113   0.219   0.218   0.218
 2016 325    10   4.50  18.70   1.30  0.923  0.000  0.923  0.923  0.000  0.923  0.000  0.000    9.52    9.52    0.00    9.52    0.00    0.00   0.032   0.063   0.094   0.094   0.094   0.183   0.182   0.181
 2016 326    11   4.50   2.00  -5.90  0.301  0.000  0.301  0.301  0.000  0.301  0.000  0.000    9.82    9.82    0.00    9.82    0.00    0.00   0.010   0.021   0.031   0.031   0.031   0.060   0.059   0.059
 2016 327    12   4.50   0.80  -7.50  0.231  0.000  0.231  0.231  0.000  0.231  0.000  0.000   10.05   10.05    0.00   10.05    0.00    0.00   0.008   0.016   0.024   0.024   0.024   0.046   0.045   0.045
 2016 328    13   4.40   4.50  -3.00  0.505  0.000  0.505  0.505  0.000  0.505  0.000  0.000   10.55   10.55    0.00   10.55    0.00    0.00   0.018   0.035   0.052   0.052   0.052   0.100   0.099   0.099
 2016 329    14   4.40   3.80   1.40  0.465  0.000  0.465  0.465  0.000  0.465  0.000  0.000   11.02   11.02    0.00   11.02    0.00    0.00   0.021   0.032   0.047   0.047   0.047   0.091   0.090   0.090
 2016 330    15   4.40   6.50   1.80  0.758  0.000  0.758  0.758  0.000  0.758  0.000  0.000   11.78   11.78    0.00   11.78    0.00    0.00   0.253   0.110   0.092   0.065   0.051   0.077   0.060   0.050
 2016 331    16   4.30   2.70   1.50  0.373  0.000  0.373  0.373  0.000  0.373  0.000  0.000   12.15   12.15    0.00   12.15    0.00    0.00   0.126   0.054   0.045   0.032   0.025   0.038   0.029   0.025
 2016 332    17   4.30   4.20   2.00  0.506  0.000  0.506  0.506  0.000  0.506  0.000  0.000   12.65   12.65    0.00   12.65    0.00    0.00   0.169   0.074   0.061   0.043   0.034   0.051   0.040   0.033
 2016 333    18   4.30   8.30   0.20  0.752  0.000  0.752  0.752  0.000  0.752  0.000  0.000   13.41   13.41    0.00   13.41    0.00    0.00   0.249   0.110   0.092   0.064   0.051   0.076   0.059   0.050
 2016 334    19   4.20   6.30   1.60  0.720  0.000  0.720  0.720  0.000  0.720  0.000  0.000   14.13   14.13    0.00   14.13    0.00    0.00   0.234   0.126   0.084   0.059   0.047   0.070   0.055   0.046
 2016 335    20   4.20  10.00   3.40  0.785  0.000  0.785  0.785  0.000  0.785  0.000  0.000   14.91   14.91    0.00   14.91    0.00    0.00   0.245   0.170   0.090   0.060   0.047   0.071   0.055   0.046
 2016 336    21   4.20  12.00  -0.10  0.781  0.000  0.781  0.781  0.000  0.781  0.000  0.000   15.69   15.69    0.00   15.69    0.00    0.00   0.235   0.180   0.092   0.058   0.046   0.070   0.054   0.045
 2016 337    22   4.20   2.60   1.30  0.356  0.000  0.356  0.356  0.000  0.356  0.000  0.000   16.05   16.05    0.00   16.05    0.00    0.00   0.106   0.082   0.043   0.027   0.021   0.032   0.025   0.021
 2016 338    23   4.10   3.40   1.70  0.409  0.000  0.409  0.409  0.000  0.409  0.000  0.000   16.46   16.46    0.00   16.46    0.00    0.00   0.121   0.093   0.050   0.031   0.024   0.037   0.029   0.024
 2016 339    24   4.10   3.00  -0.80  0.366  0.000  0.366  0.366  0.000  0.366  0.000  0.000   16.82   16.82    0.00   16.82    0.00    0.00   0.108   0.083   0.045   0.028   0.022   0.033   0.026   0.021
 2016 340    25   4.10   2.00  -1.40  0.297  0.000  0.297  0.297  0.000  0.297  0.000  0.000   17.12   17.12    0.00   17.12    0.00    0.00   0.088   0.067   0.037   0.022   0.018   0.027   0.021   0.017
 2016 341    26   4.10   0.60  -1.10  0.226  0.000  0.226  0.226  0.000  0.226  0.000  0.000   17.35   17.35    0.00   17.35    0.00    0.00   0.067   0.050   0.028   0.017   0.013   0.020   0.016   0.013
 2016 342    27   4.00   0.00  -1.60  0.194  0.000  0.194  0.194  0.000  0.194  0.000  0.000   17.54   17.54    0.00   17.54    0.00    0.00   0.058   0.043   0.025   0.015   0.012   0.018   0.014   0.011
 2016 343    28   4.00   0.00  -1.60  0.194  0.000  0.194  0.194  0.000  0.194  0.000  0.000   17.73   17.73    0.00   17.73    0.00    0.00   0.057   0.043   0.025   0.015   0.012   0.018   0.014   0.011
 2016 344    29   4.00   0.00  -9.80  0.171  0.000  0.171  0.171  0.000  0.171  0.000  0.000   17.90   17.90    0.00   17.90    0.00    0.00   0.050   0.038   0.022   0.013   0.010   0.016   0.012   0.010
 2016 345    30   4.00   0.00  -9.10  0.173  0.000  0.173  0.173  0.000  0.173  0.000  0.000   18.08   18.08    0.00   18.08    0.00    0.00   0.051   0.038   0.023   0.013   0.010   0.016   0.012   0.010
 2016 346    31   4.00   0.00 -10.10  0.170  0.000  0.170  0.170  0.000  0.170  0.000  0.000   18.25   18.25    0.00   18.25    0.00    0.00   0.050   0.037   0.023   0.013   0.010   0.016   0.012   0.010
 2016 347    32   4.00   0.00  -6.50  0.180  0.000  0.180  0.180  0.000  0.180  0.000  0.000   18.43   18.43    0.00   18.43    0.00    0.00   0.052   0.039   0.024   0.014   0.011   0.016   0.013   0.011
 2016 348    33   4.00   0.20  -8.50  0.182  0.000  0.182  0.182  0.000  0.182  0.000  0.000   18.61   18.61    0.00   18.61    0.00    0.00   0.052   0.040   0.024   0.014   0.011   0.017   0.013   0.011
 2016 349    34   4.00   0.00 -14.00  0.159  0.000  0.159  0.159  0.000  0.159  0.000  0.000   18.77   18.77    0.00   18.77    0.00    0.00   0.046   0.035   0.022   0.012   0.010   0.015   0.011   0.009
 2016 350    35   3.90   0.00 -18.40  0.144  0.000  0.144  0.144  0.000  0.144  0.000  0.000   18.91   18.91    0.00   18.91    0.00    0.00   0.041   0.031   0.020   0.011   0.009   0.013   0.010   0.008
 2016 351    36   3.90   0.00 -20.00  0.139  0.000  0.139  0.139  0.000  0.139  0.000  0.000   19.05   19.05    0.00   19.05    0.00    0.00   0.040   0.030   0.019   0.011   0.009   0.013   0.010   0.008
 2016 352    37   3.90   0.00 -17.40  0.146  0.000  0.146  0.146  0.000  0.146  0.000  0.000   19.20   19.20    0.00   19.20    0.00    0.00   0.042   0.032   0.020   0.011   0.009   0.014   0.010   0.009
 2016 353    38   3.90   0.00  -9.30  0.168  0.000  0.168  0.168  0.000  0.168  0.000  0.000   19.37   19.37    0.00   19.37    0.00    0.00   0.048   0.036   0.023   0.013   0.010   0.016   0.012   0.010
 2016 354    39   3.90   0.00 -18.80  0.143  0.000  0.143  0.143  0.000  0.143  0.000  0.000   19.51   19.51    0.00   19.51    0.00    0.00   0.040   0.031   0.020   0.011   0.009   0.013   0.010   0.008
 2016 355    40   3.90   0.00 -24.60  0.127  0.000  0.127  0.127  0.000  0.127  0.000  0.000   19.63   19.63    0.00   19.63    0.00    0.00   0.036   0.027   0.018   0.010   0.008   0.012   0.009   0.008
 2016 356    41   3.90   0.00 -18.00  0.145  0.000  0.145  0.145  0.000  0.145  0.000  0.000   19.78   19.78    0.00   19.78    0.00    0.00   0.041   0.031   0.020   0.011   0.009   0.013   0.010   0.009
 2016 357    42   3.90   0.00  -7.70  0.172  0.000  0.172  0.172  0.000  0.172  0.000  0.000   19.95   19.95    0.00   19.95    0.00    0.00   0.048   0.037   0.024   0.013   0.011   0.016   0.012   0.010
 2016 358    43   3.90   2.40  -3.80  0.295  0.000  0.295  0.295  0.000  0.295  0.000  0.000   20.25   20.25    0.00   20.25    0.00    0.00   0.087   0.062   0.041   0.023   0.018   0.027   0.021   0.017
 2016 359    44   4.00   0.40  -5.70  0.198  0.000  0.198  0.198  0.000  0.198  0.000  0.000   20.44   20.44    0.00   20.44    0.00    0.00   0.060   0.041   0.027   0.015   0.012   0.018   0.014   0.011
 2016 360    45   4.00   1.20   0.00  0.252  0.000  0.252  0.252  0.000  0.252  0.000  0.000   20.70   20.70    0.00   20.70    0.00    0.00   0.077   0.053   0.034   0.019   0.015   0.022   0.017   0.014
 2016 361    46   4.00   2.10  -0.60  0.300  0.000  0.300  0.300  0.000  0.300  0.000  0.000   21.00   21.00    0.00   21.00    0.00    0.00   0.091   0.065   0.040   0.022   0.017   0.026   0.020   0.017
 2016 362    47   4.00   7.80  -0.20  0.691  0.000  0.691  0.691  0.000  0.691  0.000  0.000   21.69   21.69    0.00   21.69    0.00    0.00   0.208   0.155   0.095   0.050   0.039   0.060   0.046   0.038
 2016 363    48   4.00   8.40  -5.10  0.658  0.000  0.658  0.658  0.000  0.658  0.000  0.000   22.35   22.35    0.00   22.35    0.00    0.00   0.195   0.148   0.093   0.047   0.038   0.057   0.044   0.036
 2016 364    49   4.00   0.00  -6.30  0.181  0.000  0.181  0.181  0.000  0.181  0.000  0.000   22.53   22.53    0.00   22.53    0.00    0.00   0.053   0.041   0.026   0.013   0.010   0.016   0.012   0.010
 2016 365    50   4.00   4.90  -2.00  0.514  0.000  0.514  0.514  0.000  0.514  0.000  0.000   23.04   23.04    0.00   23.04    0.00    0.00   0.150   0.115   0.075   0.037   0.030   0.045   0.035   0.029
 2016 366    51   4.00   0.90  -6.10  0.218  0.000  0.218  0.218  0.000  0.218  0.000  0.000   23.26   23.26    0.00   23.26    0.00    0.00   0.063   0.048   0.032   0.016   0.013   0.019   0.015   0.012
 2017 001    52   4.00   2.40  -3.80  0.304  0.000  0.304  0.304  0.000  0.304  0.000  0.000   23.56   23.56    0.00   23.56    0.00    0.00   0.087   0.067   0.045   0.022   0.018   0.027   0.021   0.017
 2017 002    53   4.10   1.60  -8.20  0.249  0.000  0.249  0.249  0.000  0.249  0.000  0.000   23.81   23.81    0.00   23.81    0.00    0.00   0.071   0.055   0.037   0.018   0.014   0.022   0.017   0.014
 2017 003    54   4.10   2.60  -2.40  0.330  0.000  0.330  0.330  0.000  0.330  0.000  0.000   24.14   24.14    0.00   24.14    0.00    0.00   0.094   0.072   0.050   0.024   0.019   0.029   0.023   0.019
 2017 004    55   4.10   2.90   1.20  0.368  0.000  0.368  0.368  0.000  0.368  0.000  0.000   24.51   24.51    0.00   24.51    0.00    0.00   0.104   0.080   0.056   0.027   0.022   0.033   0.025   0.021
 2017 005    56   4.10   2.30 -13.60  0.263  0.000  0.263  0.263  0.000  0.263  0.000  0.000   24.77   24.77    0.00   24.77    0.00    0.00   0.074   0.057   0.041   0.019   0.015   0.023   0.018   0.015
 2017 006    57   4.10   0.00 -14.60  0.162  0.000  0.162  0.162  0.000  0.162  0.000  0.000   24.93   24.93    0.00   24.93    0.00    0.00   0.045   0.035   0.025   0.012   0.009   0.014   0.011   0.009
 2017 007    58   4.20   0.00 -20.10  0.150  0.000  0.150  0.150  0.000  0.150  0.000  0.000   25.08   25.08    0.00   25.08    0.00    0.00   0.042   0.032   0.023   0.011   0.009   0.013   0.010   0.009
 2017 008    59   4.20   0.00 -18.50  0.154  0.000  0.154  0.154  0.000  0.154  0.000  0.000   25.24   25.24    0.00   25.24    0.00    0.00   0.043   0.033   0.024   0.012   0.009   0.014   0.011   0.009
 2017 009    60   4.20   0.00 -18.00  0.156  0.000  0.156  0.156  0.000  0.156  0.000  0.000   25.39   25.39    0.00   25.39    0.00    0.00   0.043   0.033   0.024   0.012   0.009   0.014   0.011   0.009
 2017 010    61   4.20   0.00 -13.30  0.169  0.000  0.169  0.169  0.000  0.169  0.000  0.000   25.56   25.56    0.00   25.56    0.00    0.00   0.047   0.036   0.026   0.013   0.010   0.015   0.012   0.010
 2017 011    62   4.30   3.70  -4.50  0.419  0.000  0.419  0.419  0.000  0.419  0.000  0.000   25.98   25.98    0.00   25.98    0.00    0.00   0.120   0.088   0.065   0.032   0.024   0.037   0.029   0.024
 2017 012    63   4.30   9.00  -4.50  0.719  0.000  0.719  0.719  0.000  0.719  0.000  0.000   26.70   26.70    0.00   26.70    0.00    0.00   0.215   0.151   0.109   0.053   0.041   0.062   0.048   0.040
 2017 013    64   4.30   3.40  -7.00  0.383  0.000  0.383  0.383  0.000  0.383  0.000  0.000   27.08   27.08    0.00   27.08    0.00    0.00   0.115   0.081   0.058   0.028   0.022   0.033   0.025   0.021
 2017 014    65   4.40   1.80  -9.70  0.273  0.000  0.273  0.273  0.000  0.273  0.000  0.000   27.36   27.36    0.00   27.36    0.00    0.00   0.081   0.058   0.041   0.020   0.015   0.023   0.018   0.015
 2017 015    66   4.40   0.00  -8.80  0.192  0.000  0.192  0.192  0.000  0.192  0.000  0.000   27.55   27.55    0.00   27.55    0.00    0.00   0.057   0.041   0.029   0.014   0.011   0.017   0.013   0.011
 2017 016    67   4.50   0.00  -7.70  0.199  0.000  0.199  0.199  0.000  0.199  0.000  0.000   27.75   27.75    0.00   27.75    0.00    0.00   0.059   0.042   0.030   0.015   0.011   0.017   0.013   0.011
 2017 017    68   4.50   0.60  -3.30  0.240  0.000  0.240  0.240  0.000  0.240  0.000  0.000   27.99   27.99    0.00   27.99    0.00    0.00   0.070   0.051   0.037   0.018   0.014   0.021   0.016   0.013
 2017 018    69   4.50   2.70  -0.10  0.382  0.000  0.382  0.382  0.000  0.382  0.000  0.000   28.37   28.37    0.00   28.37    0.00    0.00   0.109   0.081   0.064   0.030   0.021   0.032   0.025   0.020
 2017 019    70   4.60   2.40   0.00  0.369  0.000  0.369  0.369  0.000  0.369  0.000  0.000   28.74   28.74    0.00   28.74    0.00    0.00   0.103   0.078   0.066   0.031   0.020   0.030   0.023   0.019
 2017 020    71   4.60   2.30  -0.60  0.359  0.000  0.359  0.359  0.000  0.359  0.000  0.000   29.10   29.10    0.00   29.10    0.00    0.00   0.099   0.076   0.063   0.031   0.019   0.029   0.022   0.019
 2017 021    72   4.70   3.40   1.50  0.469  0.000  0.469  0.469  0.000  0.469  0.000  0.000   29.57   29.57    0.00   29.57    0.00    0.00   0.130   0.099   0.083   0.041   0.025   0.038   0.029   0.024
 2017 022    73   4.70   7.70   3.80  0.849  0.000  0.849  0.849  0.000  0.849  0.000  0.000   30.41   30.41    0.00   30.41    0.00    0.00   0.237   0.179   0.150   0.075   0.045   0.068   0.052   0.044
 2017 023    74   4.70  12.80  -0.30  0.883  0.000  0.883  0.883  0.000  0.883  0.000  0.000   31.30   31.30    0.00   31.30    0.00    0.00   0.244   0.186   0.155   0.080   0.047   0.071   0.055   0.046
 2017 024    75   4.80   3.60   1.30  0.496  0.000  0.496  0.496  0.000  0.496  0.000  0.000   31.79   31.79    0.00   31.79    0.00    0.00   0.136   0.104   0.087   0.046   0.026   0.040   0.031   0.026
 2017 025    76   4.80   4.50   1.20  0.593  0.000  0.593  0.593  0.000  0.593  0.000  0.000   32.39   32.39    0.00   32.39    0.00    0.00   0.161   0.124   0.103   0.056   0.032   0.048   0.037   0.031
 2017 026    77   4.90   2.70   0.80  0.420  0.000  0.420  0.420  0.000  0.420  0.000  0.000   32.81   32.81    0.00   32.81    0.00    0.00   0.116   0.088   0.072   0.040   0.022   0.034   0.026   0.022
 2017 027    78   4.90   3.20  -1.70  0.451  0.000  0.451  0.451  0.000  0.451  0.000  0.000   33.26   33.26    0.00   33.26    0.00    0.00   0.127   0.093   0.077   0.043   0.024   0.036   0.028   0.023
 2017 028    79   5.00   0.00  -4.60  0.232  0.000  0.232  0.232  0.000  0.232  0.000  0.000   33.49   33.49    0.00   33.49    0.00    0.00   0.065   0.048   0.039   0.022   0.012   0.019   0.014   0.012
 2017 029    80   5.10   0.00  -5.20  0.235  0.000  0.235  0.235  0.000  0.235  0.000  0.000   33.72   33.72    0.00   33.72    0.00    0.00   0.065   0.048   0.040   0.023   0.013   0.019   0.015   0.012
 2017 030    81   5.10   0.00  -4.60  0.237  0.000  0.237  0.237  0.000  0.237  0.000  0.000   33.96   33.96    0.00   33.96    0.00    0.00   0.065   0.049   0.040   0.023   0.013   0.019   0.015   0.012
 2017 031    82   5.20   0.00 -12.70  0.212  0.000  0.212  0.212  0.000  0.212  0.000  0.000   34.17   34.17    0.00   34.17    0.00    0.00   0.058   0.043   0.036   0.021   0.012   0.017   0.013   0.011
 2017 032    83   5.20   3.40  -6.00  0.469  0.000  0.469  0.469  0.000  0.469  0.000  0.000   34.64   34.64    0.00   34.64    0.00    0.00   0.128   0.096   0.078   0.046   0.028   0.038   0.030   0.025
 2017 033    84   5.30   4.40  -0.70  0.626  0.000  0.626  0.626  0.000  0.626  0.000  0.000   35.27   35.27    0.00   35.27    0.00    0.00   0.170   0.127   0.104   0.062   0.038   0.052   0.040   0.033
 2017 034    85   5.30   1.70 -10.60  0.316  0.000  0.316  0.316  0.000  0.316  0.000  0.000   35.58   35.58    0.00   35.58    0.00    0.00   0.085   0.064   0.053   0.031   0.020   0.026   0.020   0.017
 2017 035    86   5.40   0.00 -10.40  0.229  0.000  0.229  0.229  0.000  0.229  0.000  0.000   35.81   35.81    0.00   35.81    0.00    0.00   0.061   0.046   0.038   0.023   0.014   0.019   0.015   0.012
 2017 036    87   5.50   0.00 -11.10  0.230  0.000  0.230  0.230  0.000  0.230  0.000  0.000   36.04   36.04    0.00   36.04    0.00    0.00   0.061   0.046   0.038   0.023   0.014   0.020   0.015   0.012
 2017 037    88   5.50   0.00  -4.30  0.255  0.000  0.255  0.255  0.000  0.255  0.000  0.000   36.30   36.30    0.00   36.30    0.00    0.00   0.068   0.052   0.042   0.026   0.016   0.022   0.017   0.014
 2017 038    89   5.60   2.40  -4.50  0.421  0.000  0.421  0.421  0.000  0.421  0.000  0.000   36.72   36.72    0.00   36.72    0.00    0.00   0.112   0.085   0.069   0.042   0.026   0.036   0.027   0.023
 2017 039    90   5.70  11.50   2.90  1.081  0.000  1.081  1.081  0.000  1.081  0.000  0.000   37.80   37.80    0.00   37.80    0.00    0.00   0.294   0.223   0.178   0.106   0.066   0.089   0.068   0.056
 2017 040    91   5.70   8.00  -3.30  0.951  0.000  0.951  0.951  0.000  0.951  0.000  0.000   38.75   38.75    0.00   38.75    0.00    0.00   0.264   0.200   0.157   0.091   0.056   0.076   0.058   0.048
 2017 041    92   5.80   0.00 -13.40  0.234  0.000  0.234  0.234  0.000  0.234  0.000  0.000   38.99   38.99    0.00   38.99    0.00    0.00   0.064   0.049   0.039   0.023   0.014   0.019   0.015   0.012
 2017 042    93   5.90   0.00  -9.10  0.256  0.000  0.256  0.256  0.000  0.256  0.000  0.000   39.24   39.24    0.00   39.24    0.00    0.00   0.070   0.053   0.042   0.025   0.015   0.021   0.016   0.013
 2017 043    94   5.90   4.70  -2.20  0.726  0.000  0.726  0.726  0.000  0.726  0.000  0.000   39.97   39.97    0.00   39.97    0.00    0.00   0.199   0.151   0.120   0.071   0.044   0.059   0.045   0.038
 2017 044    95   6.00  10.40   0.50  1.091  0.000  1.091  1.091  0.000  1.091  0.000  0.000   41.06   41.06    0.00   41.06    0.00    0.00   0.296   0.226   0.180   0.108   0.066   0.090   0.069   0.057
 2017 045    96   6.10   6.80  -4.00  0.984  0.000  0.984  0.984  0.000  0.984  0.000  0.000   42.04   42.04    0.00   42.04    0.00    0.00   0.265   0.203   0.162   0.098   0.060   0.082   0.062   0.052
 2017 046    97   6.10   6.10  -0.40  1.015  0.000  1.015  1.015  0.000  1.015  0.000  0.000   43.06   43.06    0.00   43.06    0.00    0.00   0.270   0.209   0.167   0.102   0.063   0.085   0.065   0.054
 2017 047    98   6.20   8.50  -4.00  1.031  0.000  1.031  1.031  0.000  1.031  0.000  0.000   44.09   44.09    0.00   44.09    0.00    0.00   0.272   0.212   0.170   0.104   0.064   0.087   0.067   0.055
 2017 048    99   6.30   2.80  -1.60  0.533  0.000  0.533  0.533  0.000  0.533  0.000  0.000   44.62   44.62    0.00   44.62    0.00    0.00   0.139   0.109   0.088   0.054   0.033   0.045   0.035   0.029
 2017 049   100   6.40   5.20  -1.70  1.028  0.000  1.028  1.028  0.000  1.028  0.000  0.000   45.65   45.65    0.00   45.65    0.00    0.00   0.268   0.210   0.169   0.105   0.065   0.088   0.067   0.056
 2017 050   101   6.40  18.10   3.50  1.349  0.000  1.349  1.349  0.000  1.349  0.000  0.000   47.00   47.00    0.00   47.00    0.00    0.00   0.349   0.275   0.222   0.139   0.086   0.116   0.089   0.074
 2017 051   102   6.50  18.90   0.80  1.349  0.000  1.349  1.349  0.000  1.349  0.000  0.000   48.35   48.35    0.00   48.35    0.00    0.00   0.345   0.275   0.222   0.139   0.086   0.118   0.090   0.074
 2017 052   103   6.60  18.40   6.50  1.435  0.000  1.435  1.435  0.000  1.435  0.000  0.000   49.78   49.78    0.00   49.78    0.00    0.00   0.362   0.292   0.237   0.149   0.093   0.126   0.096   0.080
 2017 053   104   6.70  19.50  10.90  1.538  0.000  1.538  1.538  0.000  1.538  0.000  0.000   51.32   51.32    0.00   51.32    0.00    0.00   0.400   0.308   0.251   0.159   0.099   0.134   0.103   0.085
 2017 054   105   6.70  17.70   8.90  1.479  0.000  1.479  1.479  0.000  1.479  0.000  0.000   52.80   52.80    0.00   52.80    0.00    0.00   0.395   0.292   0.238   0.152   0.095   0.129   0.098   0.081
 2017 055   106   6.80  19.30   5.50  1.486  0.000  1.486  1.486  0.000  1.486  0.000  0.000   54.29   54.29    0.00   54.29    0.00    0.00   0.391   0.293   0.240   0.154   0.096   0.130   0.100   0.082
 2017 056   107   6.90   9.60   2.30  1.256  0.000  1.256  1.256  0.000  1.256  0.000  0.000   55.54   55.54    0.00   55.54    0.00    0.00   0.347   0.247   0.197   0.127   0.080   0.108   0.082   0.068
 2017 057   108   7.00   4.30  -6.90  0.748  0.000  0.748  0.748  0.000  0.748  0.000  0.000   56.29   56.29    0.00   56.29    0.00    0.00   0.215   0.147   0.115   0.074   0.047   0.063   0.048   0.040
 2017 058   109   7.10   0.00  -5.70  0.324  0.000  0.324  0.324  0.000  0.324  0.000  0.000   56.61   56.61    0.00   56.61    0.00    0.00   0.092   0.064   0.050   0.032   0.020   0.028   0.021   0.017
 2017 059   110   7.10   7.80  -2.50  1.191  0.000  1.191  1.191  0.000  1.191  0.000  0.000   57.81   57.81    0.00   57.81    0.00    0.00   0.339   0.233   0.183   0.119   0.075   0.101   0.077   0.064
 2017 060   111   7.20  10.90   4.90  1.385  0.000  1.385  1.385  0.000  1.385  0.000  0.000   59.19   59.19    0.00   59.19    0.00    0.00   0.392   0.271   0.213   0.139   0.087   0.118   0.090   0.074
 2017 061   112   7.30  15.00   4.10  1.483  0.000  1.483  1.483  0.000  1.483  0.000  0.000   60.67   60.67    0.00   60.67    0.00    0.00   0.415   0.303   0.236   0.145   0.091   0.123   0.093   0.077
 2017 062   113   7.40   3.80  -2.40  0.760  0.000  0.760  0.760  0.000  0.760  0.000  0.000   61.43   61.43    0.00   61.43    0.00    0.00   0.210   0.161   0.125   0.073   0.045   0.061   0.047   0.038
 2017 063   114   7.50   0.10  -7.40  0.340  0.000  0.340  0.340  0.000  0.340  0.000  0.000   61.77   61.77    0.00   61.77    0.00    0.00   0.093   0.072   0.056   0.033   0.020   0.028   0.021   0.017
 2017 064   115   7.60   0.40  -3.80  0.387  0.000  0.387  0.387  0.000  0.387  0.000  0.000   62.16   62.16    0.00   62.16    0.00    0.00   0.105   0.081   0.063   0.038   0.023   0.032   0.024   0.020
 2017 065   116   7.60   5.20  -0.60  1.243  0.000  1.243  1.243  0.000  1.243  0.000  0.000   63.40   63.40    0.00   63.40    0.00    0.00   0.339   0.259   0.203   0.121   0.075   0.102   0.078   0.064
 2017 066   117   7.70  13.90   4.60  1.547  0.000  1.547  1.547  0.000  1.547  0.000  0.000   64.95   64.95    0.00   64.95    0.00    0.00   0.418   0.322   0.253   0.153   0.095   0.129   0.098   0.080
 2017 067   118   7.80  17.30   4.00  1.637  0.000  1.637  1.637  0.000  1.637  0.000  0.000   66.59   66.59    0.00   66.59    0.00    0.00   0.447   0.343   0.268   0.159   0.099   0.134   0.103   0.084
 2017 068   119   7.90   9.80   2.50  1.456  0.000  1.456  1.456  0.000  1.456  0.000  0.000   68.04   68.04    0.00   68.04    0.00    0.00   0.403   0.307   0.239   0.141   0.087   0.118   0.090   0.073
 2017 069   120   8.00   9.70  -3.00  1.380  0.000  1.380  1.380  0.000  1.380  0.000  0.000   69.42   69.42    0.00   69.42    0.00    0.00   0.376   0.290   0.226   0.135   0.083   0.113   0.086   0.070
 2017 070   121   8.10   5.90  -4.80  1.271  0.000  1.271  1.271  0.000  1.271  0.000  0.000   70.69   70.69    0.00   70.69    0.00    0.00   0.344   0.266   0.209   0.125   0.077   0.105   0.080   0.065
 2017 071   122   8.10   0.00  -8.80  0.352  0.000  0.352  0.352  0.000  0.352  0.000  0.000   71.05   71.05    0.00   71.05    0.00    0.00   0.094   0.073   0.058   0.035   0.022   0.029   0.022   0.018
 2017 072   123   8.20   0.00  -9.40  0.353  0.000  0.353  0.353  0.000  0.353  0.000  0.000   71.40   71.40    0.00   71.40    0.00    0.00   0.094   0.073   0.058   0.035   0.022   0.030   0.023   0.018
 2017 073   124   8.30   0.70  -3.90  0.447  0.000  0.447  0.447  0.000  0.447  0.000  0.000   71.85   71.85    0.00   71.85    0.00    0.00   0.118   0.093   0.073   0.045   0.028   0.038   0.029   0.024
 2017 074   125   8.40   0.00  -9.30  0.362  0.000  0.362  0.362  0.000  0.362  0.000  0.000   72.21   72.21    0.00   72.21    0.00    0.00   0.095   0.075   0.059   0.036   0.023   0.031   0.023   0.019
 2017 075   126   8.50   0.00  -9.70  0.363  0.000  0.363  0.363  0.000  0.363  0.000  0.000   72.57   72.57    0.00   72.57    0.00    0.00   0.096   0.075   0.059   0.037   0.023   0.031   0.024   0.020
 2017 076   127   8.60   0.00 -10.20  0.365  0.000  0.365  0.365  0.000  0.365  0.000  0.000   72.93   72.93    0.00   72.93    0.00    0.00   0.096   0.075   0.059   0.037   0.023   0.031   0.024   0.020
 2017 077   128   8.60   5.40  -1.40  1.393  0.000  1.393  1.393  0.000  1.393  0.000  0.000   74.33   74.33    0.00   74.33    0.00    0.00   0.378   0.292   0.223   0.137   0.085   0.116   0.089   0.073
 2017 078   129   8.70  13.50   1.70  1.689  0.000  1.689  1.689  0.000  1.689  0.000  0.000   76.02   76.02    0.00   76.02    0.00    0.00   0.472   0.360   0.266   0.163   0.101   0.137   0.104   0.086
 2017 079   130   8.80   5.80  -2.80  1.417  0.000  1.417  1.417  0.000  1.417  0.000  0.000   77.43   77.43    0.00   77.43    0.00    0.00   0.392   0.301   0.223   0.138   0.085   0.116   0.089   0.073
 2017 080   131   8.90  11.10   3.70  1.696  0.000  1.696  1.696  0.000  1.696  0.000  0.000   79.13   79.13    0.00   79.13    0.00    0.00   0.471   0.360   0.266   0.165   0.102   0.139   0.106   0.087
 2017 081   132   9.00  14.30   1.10  1.758  0.000  1.758  1.758  0.000  1.758  0.000  0.000   80.89   80.89    0.00   80.89    0.00    0.00   0.488   0.371   0.275   0.171   0.106   0.144   0.110   0.091
 2017 082   133   9.10  11.20  -5.30  1.568  0.000  1.568  1.568  0.000  1.568  0.000  0.000   82.45   82.45    0.00   82.45    0.00    0.00   0.428   0.330   0.246   0.154   0.096   0.131   0.100   0.082
 2017 083   134   9.10   4.30  -2.90  1.023  0.000  1.023  1.023  0.000  1.023  0.000  0.000   83.48   83.48    0.00   83.48    0.00    0.00   0.275   0.215   0.161   0.102   0.064   0.086   0.066   0.055
 2017 084   135   9.20  12.90   2.70  1.781  0.000  1.781  1.781  0.000  1.781  0.000  0.000   85.26   85.26    0.00   85.26    0.00    0.00   0.474   0.373   0.281   0.178   0.112   0.152   0.116   0.096
 2017 085   136   9.30  26.20   4.40  2.209  0.000  2.209  2.209  0.000  2.209  0.000  0.000   87.47   87.47    0.00   87.47    0.00    0.00   0.601   0.467   0.348   0.216   0.135   0.184   0.141   0.116
 2017 086   137   9.40  11.80   5.00  1.838  0.000  1.838  1.838  0.000  1.838  0.000  0.000   89.31   89.31    0.00   89.31    0.00    0.00   0.514   0.393   0.289   0.176   0.110   0.149   0.114   0.094
 2017 087   138   9.50  13.70   7.90  1.970  0.000  1.970  1.970  0.000  1.970  0.000  0.000   91.28   91.28    0.00   91.28    0.00    0.00   0.546   0.420   0.310   0.190   0.119   0.161   0.123   0.102
 2017 088   139   9.60  10.20   4.70  1.821  0.000  1.821  1.821  0.000  1.821  0.000  0.000   93.10   93.10    0.00   93.10    0.00    0.00   0.495   0.387   0.288   0.178   0.112   0.152   0.115   0.095
 2017 089   140   9.60  10.50   2.30  1.780  0.000  1.780  1.780  0.000  1.780  0.000  0.000   94.88   94.88    0.00   94.88    0.00    0.00   0.475   0.377   0.283   0.176   0.111   0.151   0.114   0.094
 2017 090   141   9.70   8.90   4.50  1.792  0.000  1.792  1.792  0.000  1.792  0.000  0.000   96.67   96.67    0.00   96.67    0.00    0.00   0.477   0.372   0.297   0.191   0.108   0.145   0.110   0.091
 2017 091   142   9.80   7.00   2.00  1.711  0.000  1.711  1.711  0.000  1.711  0.000  0.000   98.38   98.38    0.00   98.38    0.00    0.00   0.450   0.343   0.289   0.196   0.122   0.131   0.099   0.082
 2017 092   143   9.90   5.50   0.60  1.655  0.000  1.655  1.655  0.000  1.655  0.000  0.000  100.04  100.04    0.00  100.04    0.00    0.00   0.425   0.326   0.274   0.191   0.138   0.127   0.095   0.079
 2017 093   144  10.00  13.30   5.30  2.006  0.000  2.006  2.006  0.000  2.006  0.000  0.000  102.04  102.04    0.00  102.04    0.00    0.00   0.509   0.394   0.333   0.233   0.167   0.156   0.118   0.097
 2017 094   145  10.00  12.20   7.30  2.010  0.000  2.010  2.010  0.000  2.010  0.000  0.000  104.05  104.05    0.00  104.05    0.00    0.00   0.518   0.390   0.330   0.232   0.167   0.158   0.118   0.097
 2017 095   146  10.10  12.10   7.20  2.030  0.000  2.030  2.030  0.000  2.030  0.000  0.000  106.08  106.08    0.00  106.08    0.00    0.00   0.532   0.397   0.330   0.231   0.166   0.160   0.118   0.097
 2017 096   147  10.20  11.40   5.40  1.991  0.000  1.991  1.991  0.000  1.991  0.000  0.000  108.07  108.07    0.00  108.07    0.00    0.00   0.517   0.394   0.327   0.227   0.160   0.157   0.115   0.094
 2017 097   148  10.30   4.80   2.50  1.373  0.000  1.373  1.373  0.000  1.373  0.000  0.000  109.45  109.45    0.00  109.45    0.00    0.00   0.353   0.269   0.227   0.157   0.113   0.111   0.078   0.064
 2017 098   149  10.30  11.30   0.10  1.896  0.000  1.896  1.896  0.000  1.896  0.000  0.000  111.34  111.34    0.00  111.34    0.00    0.00   0.483   0.369   0.311   0.216   0.160   0.159   0.109   0.089
 2017 099   150  10.40  12.90   2.10  2.005  0.000  2.005  2.005  0.000  2.005  0.000  0.000  113.35  113.35    0.00  113.35    0.00    0.00   0.504   0.391   0.329   0.229   0.169   0.170   0.117   0.097
 2017 100   151  10.50  19.80  11.40  2.444  0.000  2.444  2.444  0.000  2.444  0.000  0.000  115.79  115.79    0.00  115.79    0.00    0.00   0.605   0.477   0.402   0.280   0.206   0.209   0.145   0.120
 2017 101   152  10.60  23.10  15.00  2.649  0.000  2.649  2.649  0.000  2.649  0.000  0.000  118.44  118.44    0.00  118.44    0.00    0.00   0.673   0.509   0.431   0.301   0.221   0.227   0.157   0.130
 2017 102   153  10.60  21.10   5.50  2.386  0.000  2.386  2.386  0.000  2.386  0.000  0.000  120.83  120.83    0.00  120.83    0.00    0.00   0.628   0.455   0.380   0.267   0.196   0.203   0.141   0.116
 2017 103   154  10.70  10.00   1.20  1.949  0.000  1.949  1.949  0.000  1.949  0.000  0.000  122.77  122.77    0.00  122.77    0.00    0.00   0.509   0.375   0.310   0.218   0.159   0.167   0.117   0.096
 2017 104   155  10.80  17.10   6.20  2.311  0.000  2.311  2.311  0.000  2.311  0.000  0.000  125.09  125.09    0.00  125.09    0.00    0.00   0.603   0.454   0.367   0.255   0.185   0.197   0.137   0.113
 2017 105   156  10.90  16.90   7.10  2.350  0.000  2.350  2.350  0.000  2.350  0.000  0.000  127.44  127.44    0.00  127.44    0.00    0.00   0.611   0.471   0.372   0.256   0.185   0.200   0.140   0.115
 2017 106   157  10.90  22.30  12.70  2.652  0.000  2.652  2.652  0.000  2.652  0.000  0.000  130.09  130.09    0.00  130.09    0.00    0.00   0.687   0.530   0.433   0.286   0.206   0.224   0.157   0.129
 2017 107   158  11.00  26.10  14.20  2.843  0.000  2.843  2.843  0.000  2.843  0.000  0.000  132.93  132.93    0.00  132.93    0.00    0.00   0.731   0.559   0.471   0.314   0.230   0.239   0.165   0.134
 2017 108   159  11.10  20.30   6.60  2.497  0.000  2.497  2.497  0.000  2.497  0.000  0.000  135.43  135.43    0.00  135.43    0.00    0.00   0.627   0.485   0.410   0.285   0.212   0.214   0.145   0.118
 2017 109   160  11.10  21.70   5.00  2.504  0.000  2.504  2.504  0.000  2.504  0.000  0.000  137.93  137.93    0.00  137.93    0.00    0.00   0.618   0.487   0.412   0.287   0.212   0.217   0.148   0.122
 2017 110   161  11.20  23.40  15.60  2.823  0.000  2.823  2.823  0.000  2.823  0.000  0.000  140.75  140.75    0.00  140.75    0.00    0.00   0.684   0.550   0.467   0.325   0.240   0.247   0.170   0.140
 2017 111   162  11.30  18.80   8.10  2.511  0.000  2.511  2.511  0.000  2.511  0.000  0.000  143.26  143.26    0.00  143.26    0.00    0.00   0.632   0.483   0.407   0.286   0.210   0.219   0.151   0.124
 2017 112   163  11.30  18.10   4.20  2.410  0.000  2.410  2.410  0.000  2.410  0.000  0.000  145.67  145.67    0.00  145.67    0.00    0.00   0.631   0.456   0.383   0.270   0.198   0.209   0.144   0.118
 2017 113   164  11.40  11.40   2.80  2.160  0.000  2.160  2.160  0.000  2.160  0.000  0.000  147.83  147.83    0.00  147.83    0.00    0.00   0.556   0.410   0.345   0.243   0.177   0.190   0.132   0.108
 2017 114   165  11.50  16.40   1.10  2.313  0.000  2.313  2.313  0.000  2.313  0.000  0.000  150.15  150.15    0.00  150.15    0.00    0.00   0.585   0.439   0.371   0.262   0.190   0.205   0.143   0.117
 2017 115   166  11.50  21.30   5.60  2.587  0.000  2.587  2.587  0.000  2.587  0.000  0.000  152.73  152.73    0.00  152.73    0.00    0.00   0.643   0.491   0.416   0.295   0.214   0.233   0.163   0.133
 2017 116   167  11.60  23.10   9.90  2.772  0.000  2.772  2.772  0.000  2.772  0.000  0.000  155.51  155.51    0.00  155.51    0.00    0.00   0.676   0.527   0.448   0.317   0.229   0.253   0.178   0.145
 2017 117   168  11.70  25.50  15.30  3.006  0.000  3.006  3.006  0.000  3.006  0.000  0.000  158.51  158.51    0.00  158.51    0.00    0.00   0.774   0.558   0.475   0.338   0.243   0.271   0.191   0.156
 2017 118   169  11.70  20.60   4.70  2.595  0.000  2.595  2.595  0.000  2.595  0.000  0.000  161.11  161.11    0.00  161.11    0.00    0.00   0.698   0.500   0.405   0.279   0.200   0.225   0.159   0.129
 2017 119   170  11.80   7.00   2.80  2.079  0.000  2.079  2.079  0.000  2.079  0.000  0.000  163.19  163.19    0.00  163.19    0.00    0.00   0.553   0.423   0.325   0.218   0.156   0.177   0.125   0.101
 2017 120   171  11.80  13.30   6.50  2.398  0.000  2.398  2.398  0.000  2.398  0.000  0.000  165.59  165.59    0.00  165.59    0.00    0.00   0.635   0.486   0.376   0.253   0.180   0.206   0.146   0.118
 2017 121   172  11.90   7.30   3.00  2.110  0.000  2.110  2.110  0.000  2.110  0.000  0.000  167.70  167.70    0.00  167.70    0.00    0.00   0.540   0.415   0.336   0.230   0.168   0.193   0.125   0.100
 2017 122   173  11.90  11.20   5.70  2.322  0.000  2.322  2.322  0.000  2.322  0.000  0.000  170.02  170.02    0.00  170.02    0.00    0.00   0.580   0.443   0.373   0.260   0.194   0.233   0.134   0.106
 2017 123   174  12.00  12.20   4.10  2.339  0.000  2.339  2.339  0.000  2.339  0.000  0.000  172.36  172.36    0.00  172.36    0.00    0.00   0.580   0.443   0.373   0.260   0.194   0.247   0.137   0.106
 2017 124   175  12.10   9.60   1.40  2.195  0.000  2.195  2.195  0.000  2.195  0.000  0.000  174.55  174.55    0.00  174.55    0.00    0.00   0.545   0.412   0.348   0.243   0.181   0.234   0.131   0.100
 2017 125   176  12.10  13.40   5.20  2.431  0.000  2.431  2.431  0.000  2.431  0.000  0.000  176.98  176.98    0.00  176.98    0.00    0.00   0.600   0.454   0.385   0.271   0.201   0.260   0.149   0.112
 2017 126   177  12.20  14.20   4.80  2.467  0.000  2.467  2.467  0.000  2.467  0.000  0.000  179.45  179.45    0.00  179.45    0.00    0.00   0.599   0.462   0.392   0.276   0.204   0.264   0.155   0.116
 2017 127   178  12.20  17.00   6.90  2.620  0.000  2.620  2.620  0.000  2.620  0.000  0.000  182.07  182.07    0.00  182.07    0.00    0.00   0.642   0.495   0.419   0.289   0.213   0.276   0.164   0.123
 2017 128   179  12.30  15.70   1.80  2.472  0.000  2.472  2.472  0.000  2.472  0.000  0.000  184.54  184.54    0.00  184.54    0.00    0.00   0.612   0.472   0.396   0.268   0.197   0.256   0.154   0.116
 2017 129   180  12.30  15.90   2.30  2.487  0.000  2.487  2.487  0.000  2.487  0.000  0.000  187.03  187.03    0.00  187.03    0.00    0.00   0.606   0.476   0.401   0.272   0.198   0.258   0.158   0.119
 2017 130   181  12.40  17.30   3.30  2.582  0.000  2.582  2.582  0.000  2.582  0.000  0.000  189.61  189.61    0.00  189.61    0.00    0.00   0.637   0.496   0.419   0.281   0.202   0.263   0.163   0.122
 2017 131   182  12.40  15.20   7.40  2.615  0.000  2.615  2.615  0.000  2.615  0.000  0.000  192.23  192.23    0.00  192.23    0.00    0.00   0.654   0.504   0.425   0.282   0.200   0.262   0.164   0.124
 2017 132   183  12.40  18.60   8.30  2.763  0.000  2.763  2.763  0.000  2.763  0.000  0.000  194.99  194.99    0.00  194.99    0.00    0.00   0.685   0.529   0.446   0.304   0.222   0.277   0.172   0.129
 2017 133   184  12.50  18.70   9.30  2.820  0.000  2.820  2.820  0.000  2.820  0.000  0.000  197.81  197.81    0.00  197.81    0.00    0.00   0.694   0.536   0.452   0.315   0.234   0.281   0.175   0.132
 2017 134   185  12.50  21.40   8.00  2.885  0.000  2.885  2.885  0.000  2.885  0.000  0.000  200.69  200.69    0.00  200.69    0.00    0.00   0.696   0.550   0.465   0.324   0.240   0.290   0.182   0.138
 2017 135   186  12.60  26.60  13.00  3.232  0.000  3.232  3.232  0.000  3.232  0.000  0.000  203.93  203.93    0.00  203.93    0.00    0.00   0.765   0.617   0.524   0.366   0.269   0.327   0.207   0.157
 2017 136   187  12.60  27.20   9.70  3.164  0.000  3.164  3.164  0.000  3.164  0.000  0.000  207.09  207.09    0.00  207.09    0.00    0.00   0.732   0.605   0.516   0.360   0.264   0.323   0.206   0.158
 2017 137   188  12.70  29.20  18.10  3.478  0.000  3.478  3.478  0.000  3.478  0.000  0.000  210.57  210.57    0.00  210.57    0.00    0.00   0.787   0.666   0.570   0.399   0.291   0.357   0.231   0.177
 2017 138   189  12.70  29.60  19.60  3.526  0.000  3.526  3.526  0.000  3.526  0.000  0.000  214.09  214.09    0.00  214.09    0.00    0.00   0.776   0.676   0.582   0.408   0.296   0.366   0.238   0.184
 2017 139   190  12.70  27.90  17.20  3.391  0.000  3.391  3.391  0.000  3.391  0.000  0.000  217.49  217.49    0.00  217.49    0.00    0.00   0.792   0.634   0.548   0.386   0.280   0.347   0.228   0.176
 2017 140   191  12.80  23.30   5.50  2.955  0.000  2.955  2.955  0.000  2.955  0.000  0.000  220.44  220.44    0.00  220.44    0.00    0.00   0.735   0.537   0.466   0.330   0.239   0.298   0.198   0.152
 2017 141   192  12.80   9.00   5.80  2.399  0.000  2.399  2.399  0.000  2.399  0.000  0.000  222.84  222.84    0.00  222.84    0.00    0.00   0.622   0.437   0.369   0.262   0.190   0.238   0.159   0.122
 2017 142   193  12.80  18.30   9.40  2.875  0.000  2.875  2.875  0.000  2.875  0.000  0.000  225.71  225.71    0.00  225.71    0.00    0.00   0.763   0.549   0.448   0.301   0.216   0.272   0.184   0.141
 2017 143   194  12.90  14.10   7.10  2.668  0.000  2.668  2.668  0.000  2.668  0.000  0.000  228.38  228.38    0.00  228.38    0.00    0.00   0.685   0.531   0.432   0.275   0.197   0.248   0.170   0.130
 2017 144   195  12.90  21.60  12.30  3.098  0.000  3.098  3.098  0.000  3.098  0.000  0.000  231.48  231.48    0.00  231.48    0.00    0.00   0.803   0.610   0.499   0.320   0.228   0.288   0.198   0.152
 2017 145   196  12.90  15.50  10.80  2.822  0.000  2.822  2.822  0.000  2.822  0.000  0.000  234.30  234.30    0.00  234.30    0.00    0.00   0.735   0.553   0.461   0.297   0.203   0.257   0.178   0.137
 2017 146   197  13.00  15.10  11.80  2.855  0.000  2.855  2.855  0.000  2.855  0.000  0.000  237.16  237.16    0.00  237.16    0.00    0.00   0.728   0.563   0.476   0.309   0.203   0.258   0.180   0.139
 2017 147   198  13.00  19.80  12.00  3.042  0.000  3.042  3.042  0.000  3.042  0.000  0.000  240.20  240.20    0.00  240.20    0.00    0.00   0.759   0.601   0.509   0.332   0.218   0.278   0.195   0.151
 2017 148   199  13.00  20.90  11.40  3.064  0.000  3.064  3.064  0.000  3.064  0.000  0.000  243.26  243.26    0.00  243.26    0.00    0.00   0.774   0.606   0.514   0.335   0.216   0.275   0.194   0.150
 2017 149   200  13.00  25.20  14.00  3.318  0.000  3.318  3.318  0.000  3.318  0.000  0.000  246.58  246.58    0.00  246.58    0.00    0.00   0.849   0.658   0.555   0.363   0.230   0.293   0.208   0.161
 2017 150   201  13.10  23.30  14.70  3.277  0.000  3.277  3.277  0.000  3.277  0.000  0.000  249.86  249.86    0.00  249.86    0.00    0.00   0.819   0.648   0.551   0.364   0.230   0.294   0.209   0.162
 2017 151   202  13.10  22.70  11.30  3.156  0.005  3.151  3.156  0.005  3.151  0.000  0.000  253.01  253.01    0.01  253.01    0.00    0.00   0.769   0.620   0.531   0.354   0.225   0.287   0.205   0.159
 2017 152   203  13.10  22.40  10.20  3.108  0.009  3.100  3.108  0.009  3.100  0.000  0.000  256.12  256.12    0.01  256.11    0.00    0.00   0.740   0.610   0.525   0.351   0.223   0.285   0.205   0.160
 2017 153   204  13.10  21.90  10.70  3.095  0.012  3.084  3.095  0.012  3.084  0.000  0.000  259.22  259.22    0.03  259.19    0.00    0.00   0.718   0.607   0.525   0.352   0.224   0.288   0.208   0.163
 2017 154   205  13.20  26.00  11.60  3.302  0.016  3.286  3.302  0.016  3.286  0.000  0.000  262.52  262.52    0.04  262.48    0.00    0.00   0.745   0.648   0.562   0.378   0.241   0.310   0.225   0.177
 2017 155   206  13.20  29.00  14.10  3.482  0.023  3.459  3.482  0.023  3.459  0.000  0.000  266.00  266.00    0.06  265.94    0.00    0.00   0.131   0.309   0.475   0.459   0.370   0.615   0.565   0.534
 2017 156   207  13.20  30.50  20.90  3.722  0.033  3.688  3.721  0.033  3.688  0.000  0.000  269.72  269.72    0.10  269.62    0.00    0.00   0.140   0.329   0.504   0.489   0.395   0.655   0.604   0.571
 2017 157   208  13.20  31.40  14.50  3.584  0.043  3.541  3.583  0.043  3.541  0.000  0.000  273.31  273.31    0.14  273.17    0.00    0.00   0.135   0.316   0.482   0.468   0.377   0.628   0.580   0.554
 2017 158   209  13.20  25.60  11.20  3.257  0.067  3.188  3.255  0.067  3.188  0.000  0.000  276.56  276.56    0.21  276.35    0.00    0.00   0.121   0.285   0.432   0.419   0.338   0.564   0.523   0.506
 2017 159   210  13.20  24.30  12.10  3.224  0.089  3.133  3.222  0.089  3.133  0.000  0.000  279.79  279.78    0.30  279.49    0.00    0.00   0.119   0.279   0.424   0.411   0.331   0.553   0.514   0.502
 2017 160   211  13.30  24.40  11.20  3.223  0.111  3.110  3.221  0.111  3.110  0.000  0.000  283.01  283.00    0.41  282.60    0.00    0.00   0.118   0.277   0.419   0.407   0.327   0.548   0.512   0.502
 2017 161   212  13.30  27.20  17.40  3.496  0.147  3.346  3.493  0.147  3.346  0.000  0.000  286.51  286.50    0.55  285.94    0.00    0.00   0.138   0.297   0.448   0.436   0.351   0.588   0.550   0.539
 2017 162   213  13.30  29.90  18.30  3.640  0.194  3.442  3.636  0.194  3.442  0.000  0.000  290.15  290.13    0.75  289.38    0.00    0.00   0.869   0.651   0.558   0.380   0.242   0.316   0.234   0.192
 2017 163   214  13.30  30.60  20.50  3.710  0.247  3.454  3.702  0.247  3.454  0.000  0.000  293.86  293.83    0.99  292.84    0.00    0.00   0.147   0.300   0.458   0.448   0.362   0.609   0.572   0.559
 2017 164   215  13.30  32.70  22.30  3.827  0.331  3.486  3.817  0.331  3.486  0.000  0.000  297.68  297.65    1.33  296.32    0.00    0.00   0.147   0.302   0.462   0.452   0.365   0.615   0.579   0.564
 2017 165   216  13.30  32.90  21.60  3.798  0.420  3.370  3.790  0.420  3.370  0.000  0.000  301.48  301.44    1.75  299.69    0.00    0.00   0.141   0.291   0.447   0.437   0.352   0.595   0.561   0.546
 2017 166   217  13.30  32.50  21.20  3.752  0.511  3.231  3.741  0.511  3.231  0.000  0.000  305.23  305.18    2.26  302.92    0.00    0.00   0.134   0.277   0.428   0.420   0.338   0.571   0.538   0.524
 2017 167   218  13.30  33.00  20.10  3.721  0.605  3.102  3.706  0.605  3.102  0.000  0.000  308.95  308.89    2.86  306.03    0.00    0.00   0.840   0.591   0.480   0.330   0.210   0.277   0.206   0.168
 2017 168   219  13.30  31.80  17.10  3.612  0.693  2.904  3.598  0.693  2.904  0.000  0.000  312.57  312.49    3.55  308.93    0.00    0.00   0.827   0.587   0.472   0.283   0.179   0.236   0.176   0.144
 2017 169   220  13.30  28.80  19.90  3.549  0.779  2.755  3.534  0.779  2.755  0.000  0.000  316.12  316.02    4.33  311.69    0.00    0.00   0.752   0.579   0.488   0.269   0.163   0.214   0.160   0.130
 2017 170   221  13.30  28.40  19.50  3.507  0.848  2.641  3.489  0.848  2.641  0.000  0.000  319.62  319.51    5.18  314.33    0.00    0.00   0.715   0.549   0.464   0.281   0.155   0.202   0.151   0.123
 2017 171   222  13.30  23.80  15.90  3.229  0.804  2.402  3.206  0.804  2.402  0.000  0.000  322.85  322.71    5.99  316.73    0.00    0.00   0.652   0.491   0.417   0.268   0.142   0.183   0.137   0.112
 2017 172   223  13.30  25.10  14.20  3.229  0.840  2.366  3.206  0.840  2.366  0.000  0.000  326.08  325.92    6.83  319.09    0.00    0.00   0.644   0.478   0.409   0.264   0.142   0.182   0.136   0.111
 2017 173   224  13.30  26.30  12.90  3.232  0.894  2.323  3.216  0.894  2.323  0.000  0.000  329.31  329.14    7.72  321.42    0.00    0.00   0.634   0.475   0.396   0.257   0.141   0.178   0.133   0.109
 2017 174   225  13.30  25.80  21.20  3.421  0.987  2.415  3.402  0.987  2.415  0.000  0.000  332.73  332.54    8.71  323.83    0.00    0.00   0.652   0.500   0.408   0.266   0.147   0.188   0.139   0.114
 2017 175   226  13.30  30.10  18.60  3.499  1.082  2.388  3.470  1.082  2.388  0.000  0.000  336.23  336.01    9.79  326.22    0.00    0.00   0.640   0.493   0.410   0.269   0.144   0.186   0.136   0.111
 2017 176   227  13.30  26.50  14.30  3.245  1.052  2.162  3.214  1.052  2.162  0.000  0.000  339.48  339.22   10.84  328.38    0.00    0.00   0.577   0.443   0.375   0.250   0.131   0.166   0.121   0.100
 2017 177   228  13.30  21.60  11.00  2.960  1.004  1.924  2.927  1.004  1.924  0.000  0.000  342.44  342.15   11.84  330.31    0.00    0.00   0.504   0.393   0.335   0.223   0.119   0.150   0.110   0.090
 2017 178   229  13.30  19.50  11.60  2.885  1.013  1.838  2.851  1.013  1.838  0.000  0.000  345.32  345.00   12.86  332.14    0.00    0.00   0.472   0.375   0.321   0.213   0.116   0.148   0.107   0.088
 2017 179   230  13.30  21.10   9.10  2.871  1.049  1.789  2.839  1.049  1.789  0.000  0.000  348.19  347.84   13.91  333.93    0.00    0.00   0.449   0.364   0.312   0.208   0.114   0.149   0.106   0.087
 2017 180   231  13.30  23.70  13.90  3.079  1.183  1.871  3.054  1.183  1.871  0.000  0.000  351.27  350.89   15.09  335.80    0.00    0.00   0.460   0.378   0.327   0.219   0.121   0.160   0.112   0.092
 2017 181   232  13.30  24.60  15.70  3.142  1.268  1.828  3.097  1.268  1.828  0.000  0.000  354.41  353.99   16.36  337.63    0.00    0.00   0.474   0.376   0.313   0.206   0.115   0.151   0.106   0.087
 2017 182   233  13.30  25.70  16.70  3.208  1.399  1.782  3.181  1.399  1.782  0.000  0.000  357.62  357.17   17.76  339.41    0.00    0.00   0.488   0.372   0.298   0.192   0.108   0.142   0.099   0.082
 2017 183   234  13.20  26.10  17.50  3.201  1.483  1.688  3.172  1.483  1.688  0.000  0.000  360.82  360.34   19.24  341.10    0.00    0.00   0.457   0.351   0.283   0.182   0.104   0.137   0.096   0.078
 2017 184   235  13.20  26.00  14.50  3.105  1.504  1.563  3.068  1.504  1.563  0.000  0.000  363.93  363.41   20.74  342.67    0.00    0.00   0.415   0.323   0.263   0.169   0.097   0.130   0.092   0.074
 2017 185   236  13.20  30.00  19.00  3.343  1.724  1.586  3.310  1.724  1.586  0.000  0.000  367.27  366.72   22.47  344.25    0.00    0.00   0.414   0.327   0.267   0.172   0.100   0.134   0.097   0.076
 2017 186   237  13.20  27.90  16.50  3.178  1.770  1.380  3.150  1.770  1.380  0.000  0.000  370.45  369.87   24.24  345.63    0.00    0.00   0.361   0.281   0.231   0.149   0.087   0.118   0.085   0.067
 2017 187   238  13.20  28.90  17.80  3.227  1.908  1.293  3.201  1.908  1.293  0.000  0.000  373.68  373.07   26.15  346.93    0.00    0.00   0.340   0.261   0.214   0.140   0.082   0.112   0.081   0.064
 2017 188   239  13.20  29.10  18.40  3.227  2.017  1.183  3.200  2.017  1.183  0.000  0.000  376.90  376.27   28.16  348.11    0.00    0.00   0.326   0.232   0.192   0.126   0.075   0.102   0.074   0.058
 2017 189   240  13.10  31.30  22.60  3.368  2.200  1.128  3.328  2.200  1.128  0.000  0.000  380.27  379.60   30.36  349.24    0.00    0.00   0.323   0.216   0.179   0.118   0.071   0.097   0.070   0.055
 2017 190   241  13.10  29.20  15.30  3.101  2.112  0.947  3.060  2.112  0.947  0.000  0.000  383.37  382.66   32.48  350.18    0.00    0.00   0.266   0.181   0.151   0.100   0.061   0.082   0.060   0.047
 2017 191   242  13.10  25.50  15.00  2.948  2.085  0.830  2.915  2.085  0.830  0.000  0.000  386.32  385.57   34.56  351.01    0.00    0.00   0.230   0.158   0.132   0.088   0.054   0.073   0.053   0.042
 2017 192   243  13.10  28.80  18.40  3.132  2.266  0.822  3.088  2.266  0.822  0.000  0.000  389.45  388.66   36.83  351.84    0.00    0.00   0.229   0.166   0.133   0.083   0.051   0.070   0.051   0.040
 2017 193   244  13.00  27.70  20.00  3.096  2.332  0.732  3.064  2.332  0.732  0.000  0.000  392.55  391.73   39.16  352.57    0.00    0.00   0.206   0.157   0.121   0.070   0.043   0.059   0.043   0.034
 2017 194   245  13.00  27.70  20.00  3.087  2.372  0.680  3.052  2.372  0.680  0.000  0.000  395.63  394.78   41.53  353.25    0.00    0.00   0.190   0.145   0.112   0.066   0.040   0.055   0.040   0.032
 2017 195   246  13.00  27.90  21.70  3.126  2.420  0.658  3.078  2.420  0.658  0.000  0.000  398.76  397.86   43.95  353.91    0.00    0.00   0.182   0.138   0.112   0.066   0.038   0.052   0.039   0.030
 2017 196   247  13.00  26.60  16.70  2.965  2.303  0.611  2.914  2.303  0.611  0.000  0.000  401.72  400.77   46.25  354.52    0.00    0.00   0.168   0.128   0.107   0.063   0.035   0.048   0.035   0.028
 2017 197   248  12.90  20.40  14.00  2.668  2.081  0.550  2.631  2.081  0.550  0.000  0.000  404.39  403.40   48.33  355.07    0.00    0.00   0.150   0.115   0.096   0.056   0.032   0.043   0.032   0.025
 2017 198   249  12.90  26.20  19.70  2.998  2.329  0.633  2.962  2.329  0.633  0.000  0.000  407.39  406.36   50.66  355.70    0.00    0.00   0.173   0.132   0.111   0.065   0.037   0.049   0.037   0.029
 2017 199   250  12.90  24.80  12.60  2.792  2.151  0.603  2.754  2.151  0.603  0.000  0.000  410.18  409.12   52.81  356.30    0.00    0.00   0.165   0.126   0.106   0.063   0.035   0.046   0.035   0.027
 2017 200   251  12.80  26.70  13.80  2.866  2.207  0.639  2.846  2.207  0.639  0.000  0.000  413.05  411.96   55.02  356.94    0.00    0.00   0.174   0.133   0.112   0.066   0.038   0.049   0.037   0.029
 2017 201   252  12.80  29.50  20.40  3.114  2.368  0.717  3.086  2.368  0.717  0.000  0.000  416.16  415.05   57.39  357.66    0.00    0.00   0.194   0.149   0.126   0.074   0.043   0.056   0.042   0.033
 2017 202   253  12.80  31.90  19.90  3.188  2.396  0.758  3.155  2.396  0.758  0.000  0.000  419.35  418.20   59.79  358.42    0.00    0.00   0.202   0.154   0.130   0.083   0.055   0.057   0.043   0.034
 2017 203   254  12.70  29.60  21.70  3.133  2.328  0.773  3.100  2.328  0.773  0.000  0.000  422.48  421.30   62.11  359.19    0.00    0.00   0.203   0.155   0.130   0.090   0.063   0.056   0.042   0.033
 2017 204   255  12.70  29.50  19.40  3.084  2.239  0.793  3.031  2.239  0.793  0.000  0.000  425.57  424.33   64.35  359.98    0.00    0.00   0.205   0.156   0.131   0.090   0.065   0.069   0.043   0.033
 2017 205   256  12.60  28.90  22.70  3.122  2.249  0.847  3.096  2.249  0.847  0.000  0.000  428.69  427.43   66.60  360.83    0.00    0.00   0.216   0.163   0.137   0.095   0.071   0.086   0.046   0.035
 2017 206   257  12.60  31.00  18.10  3.098  2.169  0.884  3.053  2.169  0.884  0.000  0.000  431.79  430.48   68.77  361.71    0.00    0.00   0.224   0.169   0.143   0.098   0.073   0.088   0.050   0.038
 2017 207   258  12.60  23.80  14.10  2.769  1.912  0.824  2.736  1.912  0.824  0.000  0.000  434.56  433.22   70.68  362.54    0.00    0.00   0.207   0.157   0.133   0.092   0.068   0.081   0.048   0.037
 2017 208   259  12.50  25.60  17.10  2.881  1.947  0.895  2.842  1.947  0.895  0.000  0.000  437.44  436.06   72.63  363.43    0.00    0.00   0.224   0.171   0.144   0.100   0.073   0.088   0.053   0.043
 2017 209   260  12.50  27.60  21.20  3.046  2.038  0.981  3.020  2.038  0.981  0.000  0.000  440.49  439.08   74.67  364.41    0.00    0.00   0.247   0.189   0.160   0.109   0.078   0.094   0.057   0.047
 2017 210   261  12.40  27.10  16.30  2.905  1.892  0.969  2.861  1.892  0.969  0.000  0.000  443.39  441.94   76.56  365.38    0.00    0.00   0.246   0.188   0.159   0.108   0.075   0.090   0.056   0.046
 2017 211   262  12.40  25.30  14.40  2.806  1.799  0.966  2.765  1.799  0.966  0.000  0.000  446.20  444.71   78.36  366.35    0.00    0.00   0.244   0.188   0.158   0.108   0.075   0.090   0.057   0.047
 2017 212   263  12.40  24.60  13.20  2.760  1.755  0.977  2.732  1.755  0.977  0.000  0.000  448.96  447.44   80.11  367.33    0.00    0.00   0.245   0.190   0.161   0.109   0.075   0.091   0.058   0.048
 2017 213   264  12.30  26.70  16.10  2.880  1.800  1.069  2.868  1.800  1.069  0.000  0.000  451.84  450.31   81.91  368.39    0.00    0.00   0.265   0.208   0.176   0.120   0.082   0.099   0.065   0.053
 2017 214   265  12.30  27.30  17.50  2.939  1.792  1.138  2.929  1.792  1.138  0.000  0.000  454.78  453.23   83.70  369.53    0.00    0.00   0.280   0.221   0.188   0.128   0.087   0.106   0.070   0.058
 2017 215   266  12.20  28.90  17.50  2.976  1.763  1.196  2.960  1.763  1.196  0.000  0.000  457.75  456.19   85.47  370.73    0.00    0.00   0.291   0.232   0.198   0.135   0.092   0.112   0.075   0.062
 2017 216   267  12.20  28.50  18.10  2.982  1.718  1.240  2.959  1.718  1.240  0.000  0.000  460.73  459.15   87.18  371.97    0.00    0.00   0.298   0.240   0.205   0.140   0.095   0.117   0.079   0.066
 2017 217   268  12.10  28.40  12.50  2.835  1.571  1.216  2.787  1.571  1.216  0.000  0.000  463.57  461.94   88.76  373.18    0.00    0.00   0.293   0.233   0.200   0.138   0.094   0.115   0.079   0.065
 2017 218   269  12.10  20.40  13.20  2.590  1.410  1.141  2.550  1.410  1.141  0.000  0.000  466.16  464.49   90.17  374.32    0.00    0.00   0.276   0.217   0.187   0.129   0.088   0.108   0.075   0.061
 2017 219   270  12.00  24.80  15.90  2.779  1.506  1.253  2.759  1.506  1.253  0.000  0.000  468.94  467.25   91.67  375.58    0.00    0.00   0.301   0.238   0.205   0.142   0.096   0.119   0.083   0.068
 2017 220   271  11.90  23.10  13.80  2.657  1.412  1.223  2.635  1.412  1.223  0.000  0.000  471.59  469.88   93.08  376.80    0.00    0.00   0.290   0.232   0.201   0.139   0.094   0.117   0.082   0.068
 2017 221   272  11.90  24.00  10.70  2.621  1.370  1.227  2.597  1.370  1.227  0.000  0.000  474.21  472.48   94.45  378.03    0.00    0.00   0.049   0.106   0.162   0.161   0.138   0.220   0.197   0.194
 2017 222   273  11.80  26.20  10.70  2.673  1.382  1.270  2.653  1.382  1.270  0.000  0.000  476.89  475.13   95.84  379.30    0.00    0.00   0.051   0.109   0.167   0.166   0.142   0.227   0.206   0.203
 2017 223   274  11.80  26.10  13.10  2.725  1.393  1.309  2.702  1.393  1.309  0.000  0.000  479.61  477.84   97.23  380.61    0.00    0.00   0.052   0.112   0.172   0.170   0.145   0.234   0.214   0.211
 2017 224   275  11.70  27.50  15.50  2.800  1.414  1.357  2.771  1.414  1.357  0.000  0.000  482.41  480.61   98.64  381.96    0.00    0.00   0.056   0.115   0.177   0.176   0.150   0.242   0.222   0.219
 2017 225   276  11.70  22.20  12.60  2.569  1.291  1.251  2.541  1.291  1.251  0.000  0.000  484.98  483.15   99.93  383.21    0.00    0.00   0.306   0.231   0.202   0.140   0.094   0.119   0.087   0.072
 2017 226   277  11.60  23.30  11.80  2.564  1.292  1.251  2.543  1.292  1.251  0.000  0.000  487.55  485.69  101.23  384.47    0.00    0.00   0.052   0.104   0.162   0.161   0.137   0.223   0.208   0.204
 2017 227   278  11.50  23.40  14.20  2.596  1.321  1.266  2.587  1.321  1.266  0.000  0.000  490.14  488.28  102.55  385.73    0.00    0.00   0.052   0.105   0.164   0.162   0.138   0.225   0.212   0.208
 2017 228   279  11.50  26.40  17.50  2.762  1.395  1.347  2.743  1.395  1.347  0.000  0.000  492.90  491.02  103.94  387.08    0.00    0.00   0.056   0.111   0.174   0.172   0.146   0.239   0.227   0.222
 2017 229   280  11.40  27.90  16.40  2.763  1.394  1.349  2.743  1.394  1.349  0.000  0.000  495.67  493.76  105.34  388.43    0.00    0.00   0.056   0.111   0.173   0.172   0.146   0.240   0.228   0.223
 2017 230   281  11.40  29.40  20.70  2.901  1.450  1.418  2.868  1.450  1.418  0.000  0.000  498.57  496.63  106.79  389.85    0.00    0.00   0.376   0.283   0.219   0.146   0.098   0.125   0.094   0.077
 2017 231   282  11.30  26.80  17.10  2.735  1.355  1.339  2.694  1.355  1.339  0.000  0.000  501.30  499.33  108.14  391.18    0.00    0.00   0.374   0.286   0.200   0.130   0.086   0.111   0.083   0.069
 2017 232   283  11.20  26.00  14.50  2.630  1.316  1.291  2.607  1.316  1.291  0.000  0.000  503.93  501.93  109.46  392.48    0.00    0.00   0.355   0.275   0.194   0.127   0.083   0.108   0.082   0.067
 2017 233   284  11.20  26.80  15.40  2.673  1.345  1.317  2.663  1.345  1.317  0.000  0.000  506.60  504.60  110.80  393.79    0.00    0.00   0.357   0.279   0.199   0.132   0.086   0.112   0.084   0.070
 2017 234   285  11.10  27.70  19.80  2.767  1.375  1.371  2.746  1.375  1.371  0.000  0.000  509.37  507.34  112.18  395.16    0.00    0.00   0.380   0.294   0.204   0.134   0.087   0.114   0.086   0.071
 2017 235   286  11.00  27.10  19.60  2.727  1.340  1.359  2.699  1.340  1.359  0.000  0.000  512.10  510.04  113.52  396.52    0.00    0.00   0.386   0.294   0.202   0.130   0.084   0.110   0.083   0.069
 2017 236   287  11.00  24.70  12.20  2.503  1.216  1.255  2.472  1.216  1.255  0.000  0.000  514.60  512.51  114.73  397.78    0.00    0.00   0.354   0.271   0.189   0.120   0.078   0.102   0.077   0.064
 2017 237   288  10.90  23.60  11.90  2.441  1.186  1.235  2.421  1.186  1.235  0.000  0.000  517.04  514.93  115.92  399.01    0.00    0.00   0.343   0.266   0.187   0.121   0.077   0.101   0.077   0.064
 2017 238   289  10.80  22.70   9.10  2.336  1.121  1.194  2.315  1.121  1.194  0.000  0.000  519.38  517.25  117.04  400.21    0.00    0.00   0.328   0.256   0.181   0.118   0.075   0.098   0.075   0.063
 2017 239   290  10.70  22.50  11.90  2.365  1.123  1.224  2.347  1.123  1.224  0.000  0.000  521.74  519.60  118.16  401.43    0.00    0.00   0.332   0.262   0.186   0.123   0.077   0.101   0.078   0.065
 2017 240   291  10.70  22.80  14.70  2.432  1.133  1.277  2.410  1.133  1.277  0.000  0.000  524.18  522.01  119.30  402.71    0.00    0.00   0.353   0.270   0.192   0.128   0.080   0.105   0.081   0.068
 2017 241   292  10.60  23.40  15.60  2.453  1.126  1.308  2.433  1.126  1.308  0.000  0.000  526.63  524.44  120.42  404.02    0.00    0.00   0.374   0.280   0.193   0.127   0.080   0.105   0.081   0.068
 2017 242   293  10.50  24.60  13.50  2.431  1.102  1.318  2.419  1.102  1.318  0.000  0.000  529.06  526.86  121.52  405.33    0.00    0.00   0.380   0.289   0.193   0.125   0.079   0.104   0.080   0.067
 2017 243   294  10.50  24.50  12.90  2.420  1.073  1.335  2.408  1.073  1.335  0.000  0.000  531.48  529.27  122.60  406.67    0.00    0.00   0.380   0.293   0.199   0.128   0.080   0.106   0.081   0.069
 2017 244   295  10.40  25.00  16.10  2.478  1.066  1.393  2.459  1.066  1.393  0.000  0.000  533.96  531.72  123.66  408.06    0.00    0.00   0.395   0.304   0.207   0.135   0.084   0.111   0.086   0.072
 2017 245   296  10.30  21.80   9.80  2.242  0.931  1.285  2.216  0.931  1.285  0.000  0.000  536.20  533.94  124.59  409.35    0.00    0.00   0.360   0.279   0.192   0.125   0.078   0.103   0.080   0.067
 2017 246   297  10.20  20.60   7.20  2.138  0.870  1.250  2.121  0.870  1.250  0.000  0.000  538.34  536.06  125.47  410.60    0.00    0.00   0.346   0.271   0.188   0.123   0.076   0.101   0.078   0.066
 2017 247   298  10.20  22.10  12.10  2.280  0.903  1.362  2.265  0.903  1.362  0.000  0.000  540.62  538.33  126.37  411.96    0.00    0.00   0.372   0.294   0.207   0.135   0.084   0.111   0.086   0.073
 2017 248   299  10.10  26.80  17.40  2.499  0.953  1.524  2.477  0.953  1.524  0.000  0.000  543.12  540.80  127.32  413.48    0.00    0.00   0.411   0.328   0.233   0.151   0.094   0.125   0.098   0.083
 2017 249   300  10.00  26.00   9.70  2.309  0.847  1.438  2.285  0.847  1.438  0.000  0.000  545.43  543.09  128.17  414.92    0.00    0.00   0.382   0.308   0.222   0.144   0.090   0.119   0.093   0.079
 2017 250   301   9.90  19.30   7.00  2.049  0.725  1.303  2.028  0.725  1.303  0.000  0.000  547.47  545.12  128.89  416.22    0.00    0.00   0.342   0.279   0.202   0.131   0.082   0.109   0.085   0.073
 2017 251   302   9.80  17.40   8.70  2.010  0.688  1.306  1.994  0.688  1.306  0.000  0.000  549.48  547.11  129.58  417.53    0.00    0.00   0.338   0.278   0.204   0.132   0.083   0.111   0.086   0.074
 2017 252   303   9.80  20.10  10.70  2.127  0.701  1.411  2.112  0.701  1.411  0.000  0.000  551.61  549.22  130.28  418.94    0.00    0.00   0.360   0.300   0.222   0.144   0.090   0.121   0.094   0.080
 2017 253   304   9.70  22.60  10.90  2.183  0.691  1.478  2.169  0.691  1.478  0.000  0.000  553.80  551.39  130.97  420.42    0.00    0.00   0.066   0.149   0.195   0.181   0.144   0.247   0.245   0.250
 2017 254   305   9.60  22.20   7.20  2.086  0.630  1.441  2.071  0.630  1.441  0.000  0.000  555.88  553.46  131.60  421.86    0.00    0.00   0.065   0.145   0.190   0.176   0.140   0.242   0.240   0.244
 2017 255   306   9.50  21.20   8.30  2.062  0.598  1.453  2.051  0.598  1.453  0.000  0.000  557.94  555.51  132.20  423.31    0.00    0.00   1.202   0.176   0.046   0.015   0.006   0.005   0.002   0.001
 2017 256   307   9.40  23.20   8.80  2.104  0.587  1.512  2.099  0.587  1.512  0.000  0.000  560.05  557.61  132.79  424.82    0.00    0.00   1.231   0.196   0.051   0.017   0.007   0.005   0.003   0.002
 2017 257   308   9.40  25.50   8.80  2.166  0.569  1.586  1.986  0.569  1.417  0.000  0.000  562.21  559.60  133.36  426.24    0.00    0.00   1.132   0.198   0.052   0.018   0.007   0.006   0.003   0.002
 2017 258   309   9.30  25.90  10.50  2.185  0.548  1.629  1.845  0.548  1.298  0.000  0.000  564.40  561.44  133.91  427.54    0.00    0.00   1.016   0.196   0.052   0.018   0.007   0.006   0.003   0.002
 2017 259   310   9.20  26.30  12.70  2.211  0.524  1.678  1.715  0.524  1.190  0.000  0.000  566.61  563.16  134.43  428.73    0.00    0.00   0.911   0.194   0.052   0.018   0.007   0.006   0.003   0.002
 2017 260   311   9.10  29.50  14.70  2.307  0.516  1.779  1.610  0.516  1.094  0.000  0.000  568.92  564.77  134.95  429.82    0.00    0.00   0.816   0.192   0.052   0.017   0.007   0.006   0.003   0.002
 2017 261   312   9.00  29.50  17.70  2.334  0.496  1.829  1.506  0.496  1.010  0.000  0.000  571.25  566.27  135.44  430.83    0.00    0.00   0.735   0.190   0.051   0.017   0.007   0.006   0.003   0.002
 2017 262   313   9.00  26.60  10.30  2.131  0.428  1.695  1.364  0.428  0.936  0.000  0.000  573.38  567.64  135.87  431.77    0.00    0.00   0.663   0.188   0.051   0.017   0.007   0.006   0.003   0.002
 2017 263   314   8.90  26.70  15.80  2.206  0.419  1.780  1.595  0.419  1.176  0.000  0.000  575.59  569.23  136.29  432.94    0.00    0.00   0.905   0.186   0.051   0.017   0.007   0.006   0.003   0.002
 2017 264   315   8.80  26.20  17.00  2.217  0.398  1.811  1.790  0.398  1.393  0.000  0.000  577.80  571.02  136.69  434.34    0.00    0.00   1.124   0.184   0.051   0.017   0.007   0.006   0.003   0.002
 2017 265   316   8.70  32.50  20.90  2.417  0.411  1.997  1.688  0.411  1.277  0.000  0.000  580.22  572.71  137.10  435.61    0.00    0.00   1.010   0.182   0.051   0.017   0.007   0.006   0.003   0.002
 2017 266   317   8.60  32.30  20.10  2.369  0.385  1.978  1.556  0.385  1.172  0.000  0.000  582.59  574.27  137.48  436.78    0.00    0.00   0.907   0.180   0.050   0.017   0.007   0.006   0.003   0.002
 2017 267   318   8.50  33.30  19.20  2.349  0.364  1.980  1.441  0.364  1.077  0.000  0.000  584.94  575.71  137.85  437.86    0.00    0.00   0.815   0.178   0.050   0.017   0.007   0.005   0.003   0.002
 2017 268   319   8.50  33.00  18.50  2.329  0.345  1.979  1.340  0.345  0.994  0.000  0.000  587.27  577.05  138.19  438.86    0.00    0.00   0.734   0.177   0.050   0.017   0.007   0.005   0.003   0.002
 2017 269   320   8.40  31.50  17.40  2.245  0.317  1.923  1.237  0.317  0.921  0.000  0.000  589.51  578.28  138.51  439.78    0.00    0.00   0.662   0.175   0.050   0.017   0.007   0.005   0.003   0.002
 2017 270   321   8.30  32.30  17.90  2.245  0.304  1.937  1.158  0.304  0.854  0.000  0.000  591.76  579.44  138.81  440.63    0.00    0.00   0.597   0.173   0.050   0.017   0.007   0.005   0.003   0.002
 2017 271   322   8.20  31.40  14.10  2.135  0.275  1.853  1.068  0.275  0.794  0.000  0.000  593.89  580.51  139.09  441.42    0.00    0.00   0.539   0.172   0.050   0.017   0.007   0.005   0.003   0.002
 2017 272   323   8.10  20.70   6.90  1.741  0.215  1.520  0.955  0.215  0.740  0.000  0.000  595.63  581.46  139.30  442.16    0.00    0.00   0.487   0.170   0.049   0.017   0.007   0.005   0.003   0.002
 2017 273   324   8.00  21.70  11.60  1.816  0.217  1.594  0.907  0.217  0.690  0.000  0.000  597.45  582.37  139.52  442.85    0.00    0.00   0.439   0.169   0.049   0.017   0.007   0.005   0.003   0.002
 2017 274   325   8.00  19.70   7.00  1.697  0.194  1.498  0.840  0.194  0.646  0.000  0.000  599.15  583.21  139.71  443.50    0.00    0.00   0.396   0.167   0.049   0.017   0.007   0.005   0.003   0.002
 2017 275   326   7.90  20.20   7.20  1.690  0.186  1.499  0.792  0.186  0.606  0.000  0.000  600.84  584.00  139.90  444.11    0.00    0.00   0.358   0.166   0.049   0.017   0.007   0.005   0.003   0.002
 2017 276   327   7.80  20.70  13.90  1.781  0.188  1.588  0.758  0.188  0.569  0.000  0.000  602.62  584.76  140.09  444.67    0.00    0.00   0.323   0.164   0.049   0.017   0.007   0.005   0.003   0.002
 2017 277   328   7.70  27.40  17.70  1.965  0.208  1.751  0.744  0.208  0.536  0.000  0.000  604.58  585.51  140.30  445.21    0.00    0.00   0.291   0.163   0.049   0.017   0.007   0.005   0.003   0.002
 2017 278   329   7.60  25.10  16.90  1.875  0.198  1.671  0.772  0.198  0.575  0.000  0.000  606.46  586.28  140.49  445.79    0.00    0.00   0.331   0.162   0.049   0.017   0.006   0.005   0.003   0.002
 2017 279   330   7.50  23.80  10.90  1.739  0.186  1.550  0.795  0.186  0.609  0.000  0.000  608.20  587.07  140.68  446.39    0.00    0.00   0.367   0.160   0.048   0.017   0.006   0.005   0.003   0.002
 2017 280   331   7.50  24.30  15.50  1.815  0.195  1.618  0.815  0.195  0.620  0.000  0.000  610.01  587.89  140.87  447.02    0.00    0.00   0.380   0.159   0.048   0.017   0.006   0.005   0.003   0.002
 2017 281   332   7.40  19.80  16.10  1.705  0.180  1.519  1.206  0.180  1.026  0.000  0.000  611.72  589.09  141.05  448.04    0.00    0.00   0.787   0.158   0.048   0.017   0.006   0.005   0.003   0.002
 2017 282   333   7.30  23.10   9.60  1.687  0.177  1.504  1.681  0.177  1.504  0.000  0.000  613.40  590.78  141.23  449.54    0.00    0.00   1.288   0.142   0.044   0.015   0.006   0.005   0.003   0.002
 2017 283   334   7.20  25.30  10.60  1.745  0.187  1.555  1.742  0.187  1.555  0.000  0.000  615.15  592.52  141.42  451.10    0.00    0.00   0.467   0.263   0.231   0.155   0.099   0.138   0.109   0.094
 2017 284   335   7.10  25.90  13.20  1.769  0.189  1.576  1.765  0.189  1.576  0.000  0.000  616.92  594.28  141.61  452.68    0.00    0.00   1.370   0.135   0.042   0.015   0.006   0.005   0.002   0.002
 2017 285   336   7.10  16.20  12.60  1.549  0.162  1.380  1.543  0.162  1.380  0.000  0.000  618.47  595.83  141.77  454.06    0.00    0.00   0.393   0.275   0.228   0.127   0.081   0.112   0.089   0.076
 2017 286   337   7.00  14.50  12.60  1.506  0.159  1.342  1.501  0.159  1.342  0.000  0.000  619.97  597.33  141.93  455.40    0.00    0.00   0.387   0.295   0.238   0.112   0.070   0.098   0.077   0.066
 2017 287   338   6.90  14.00  11.70  1.461  0.156  1.302  1.458  0.156  1.302  0.000  0.000  621.44  598.79  142.08  456.70    0.00    0.00   0.373   0.283   0.234   0.110   0.068   0.095   0.075   0.065
 2017 288   339   6.80  21.50  10.80  1.581  0.168  1.409  1.577  0.168  1.409  0.000  0.000  623.02  600.36  142.25  458.11    0.00    0.00   0.390   0.297   0.248   0.145   0.086   0.099   0.078   0.067
