*MANAGEMENT OPERATIONS DAILY OUTPUT FILE

*DSSAT Cropping System Model Ver. 4.6.1.000 -release      APR 22, 2019; 09:45:14
                                                                                
*RUN   1        : Sim1                      MZCER046 UINT1601    1              
 MODEL          : MZCER046 - Maize                                              
 EXPERIMENT     : UINT1601 MZ N TRACK                                           
 DATA PATH      :                                                               
 TREATMENT  1   : Sim1                      MZCER046                            
  

@YEAR DOY   DAS   DAP  IR#C  IRRC  TL#C  TLDD DLYR3   TLBD  NAPC  NICM  R#AC RESNC RESPC
 2016 316     1     0     0     0     0     0    30  1.405     0     0     0     0     0
 2016 317     2     0     0     0     0     0    30  1.405     0     0     0     0     0
 2016 318     3     0     0     0     0     0    30  1.405     0     0     0     0     0
 2016 319     4     0     0     0     0     0    30  1.405     0     0     0     0     0
 2016 320     5     0     0     0     0     0    30  1.405     0     0     0     0     0
 2016 321     6     0     0     0     0     0    30  1.405     1     0     0     0     0
 2016 322     7     0     0     0     0     0    30  1.405     1     0     0     0     0
 2016 323     8     0     0     0     0     0    30  1.405     1     0     0     0     0
 2016 324     9     0     0     0     0     0    30  1.405     1     0     0     0     0
 2016 325    10     0     0     0     0     0    30  1.405     1     0     0     0     0
 2016 326    11     0     0     0     0     0    30  1.405     1     0     0     0     0
 2016 327    12     0     0     0     0     0    30  1.405     1     0     0     0     0
 2016 328    13     0     0     0     0     0    30  1.405     1     0     0     0     0
 2016 329    14     0     0     0     0     0    30  1.405     1     0     0     0     0
 2016 330    15     0     0     0     0     0    30  1.405     1     0     0     0     0
 2016 331    16     0     0     0     0     0    30  1.405     1     0     0     0     0
 2016 332    17     0     0     0     0     0    30  1.405     1     0     0     0     0
 2016 333    18     0     0     0     0     0    30  1.405     1     0     0     0     0
 2016 334    19     0     0     0     0     0    30  1.405     1     0     0     0     0
 2016 335    20     0     0     0     0     0    30  1.405     1     0     0     0     0
 2016 336    21     0     0     0     0     0    30  1.405     1     0     0     0     0
 2016 337    22     0     0     0     0     0    30  1.405     1     0     0     0     0
 2016 338    23     0     0     0     0     0    30  1.405     1     0     0     0     0
 2016 339    24     0     0     0     0     0    30  1.405     1     0     0     0     0
 2016 340    25     0     0     0     0     0    30  1.405     1     0     0     0     0
 2016 341    26     0     0     0     0     0    30  1.405     1     0     0     0     0
 2016 342    27     0     0     0     0     0    30  1.405     1     0     0     0     0
 2016 343    28     0     0     0     0     0    30  1.405     1     0     0     0     0
 2016 344    29     0     0     0     0     0    30  1.405     1     0     0     0     0
 2016 345    30     0     0     0     0     0    30  1.405     1     0     0     0     0
 2016 346    31     0     0     0     0     0    30  1.405     1     0     0     0     0
 2016 347    32     0     0     0     0     0    30  1.405     1     0     0     0     0
 2016 348    33     0     0     0     0     0    30  1.405     1     0     0     0     0
 2016 349    34     0     0     0     0     0    30  1.405     1     0     0     0     0
 2016 350    35     0     0     0     0     0    30  1.405     1     0     0     0     0
 2016 351    36     0     0     0     0     0    30  1.405     1     0     0     0     0
 2016 352    37     0     0     0     0     0    30  1.405     1     0     0     0     0
 2016 353    38     0     0     0     0     0    30  1.405     1     0     0     0     0
 2016 354    39     0     0     0     0     0    30  1.405     1     0     0     0     0
 2016 355    40     0     0     0     0     0    30  1.405     1     0     0     0     0
 2016 356    41     0     0     0     0     0    30  1.405     1     0     0     0     0
 2016 357    42     0     0     0     0     0    30  1.405     1     0     0     0     0
 2016 358    43     0     0     0     0     0    30  1.405     1     0     0     0     0
 2016 359    44     0     0     0     0     0    30  1.405     1     0     0     0     0
 2016 360    45     0     0     0     0     0    30  1.405     1     0     0     0     0
 2016 361    46     0     0     0     0     0    30  1.405     1     0     0     0     0
 2016 362    47     0     0     0     0     0    30  1.405     1     0     0     0     0
 2016 363    48     0     0     0     0     0    30  1.405     1     0     0     0     0
 2016 364    49     0     0     0     0     0    30  1.405     1     0     0     0     0
 2016 365    50     0     0     0     0     0    30  1.405     1     0     0     0     0
 2016 366    51     0     0     0     0     0    30  1.405     1     0     0     0     0
 2017 001    52     0     0     0     0     0    30  1.405     1     0     0     0     0
 2017 002    53     0     0     0     0     0    30  1.405     1     0     0     0     0
 2017 003    54     0     0     0     0     0    30  1.405     1     0     0     0     0
 2017 004    55     0     0     0     0     0    30  1.405     1     0     0     0     0
 2017 005    56     0     0     0     0     0    30  1.405     1     0     0     0     0
 2017 006    57     0     0     0     0     0    30  1.405     1     0     0     0     0
 2017 007    58     0     0     0     0     0    30  1.405     1     0     0     0     0
 2017 008    59     0     0     0     0     0    30  1.405     1     0     0     0     0
 2017 009    60     0     0     0     0     0    30  1.405     1     0     0     0     0
 2017 010    61     0     0     0     0     0    30  1.405     1     0     0     0     0
 2017 011    62     0     0     0     0     0    30  1.405     1     0     0     0     0
 2017 012    63     0     0     0     0     0    30  1.405     1     0     0     0     0
 2017 013    64     0     0     0     0     0    30  1.405     1     0     0     0     0
 2017 014    65     0     0     0     0     0    30  1.405     1     0     0     0     0
 2017 015    66     0     0     0     0     0    30  1.405     1     0     0     0     0
 2017 016    67     0     0     0     0     0    30  1.405     1     0     0     0     0
 2017 017    68     0     0     0     0     0    30  1.405     1     0     0     0     0
 2017 018    69     0     0     0     0     0    30  1.405     1     0     0     0     0
 2017 019    70     0     0     0     0     0    30  1.405     1     0     0     0     0
 2017 020    71     0     0     0     0     0    30  1.405     1     0     0     0     0
 2017 021    72     0     0     0     0     0    30  1.405     1     0     0     0     0
 2017 022    73     0     0     0     0     0    30  1.405     1     0     0     0     0
 2017 023    74     0     0     0     0     0    30  1.405     1     0     0     0     0
 2017 024    75     0     0     0     0     0    30  1.405     1     0     0     0     0
 2017 025    76     0     0     0     0     0    30  1.405     1     0     0     0     0
 2017 026    77     0     0     0     0     0    30  1.405     1     0     0     0     0
 2017 027    78     0     0     0     0     0    30  1.405     1     0     0     0     0
 2017 028    79     0     0     0     0     0    30  1.405     1     0     0     0     0
 2017 029    80     0     0     0     0     0    30  1.405     1     0     0     0     0
 2017 030    81     0     0     0     0     0    30  1.405     1     0     0     0     0
 2017 031    82     0     0     0     0     0    30  1.405     1     0     0     0     0
 2017 032    83     0     0     0     0     0    30  1.405     1     0     0     0     0
 2017 033    84     0     0     0     0     0    30  1.405     1     0     0     0     0
 2017 034    85     0     0     0     0     0    30  1.405     1     0     0     0     0
 2017 035    86     0     0     0     0     0    30  1.405     1     0     0     0     0
 2017 036    87     0     0     0     0     0    30  1.405     1     0     0     0     0
 2017 037    88     0     0     0     0     0    30  1.405     1     0     0     0     0
 2017 038    89     0     0     0     0     0    30  1.405     1     0     0     0     0
 2017 039    90     0     0     0     0     0    30  1.405     1     0     0     0     0
 2017 040    91     0     0     0     0     0    30  1.405     1     0     0     0     0
 2017 041    92     0     0     0     0     0    30  1.405     1     0     0     0     0
 2017 042    93     0     0     0     0     0    30  1.405     1     0     0     0     0
 2017 043    94     0     0     0     0     0    30  1.405     1     0     0     0     0
 2017 044    95     0     0     0     0     0    30  1.405     1     0     0     0     0
 2017 045    96     0     0     0     0     0    30  1.405     1     0     0     0     0
 2017 046    97     0     0     0     0     0    30  1.405     1     0     0     0     0
 2017 047    98     0     0     0     0     0    30  1.405     1     0     0     0     0
 2017 048    99     0     0     0     0     0    30  1.405     1     0     0     0     0
 2017 049   100     0     0     0     0     0    30  1.405     1     0     0     0     0
 2017 050   101     0     0     0     0     0    30  1.405     1     0     0     0     0
 2017 051   102     0     0     0     0     0    30  1.405     1     0     0     0     0
 2017 052   103     0     0     0     0     0    30  1.405     1     0     0     0     0
 2017 053   104     0     0     0     0     0    30  1.405     1     0     0     0     0
 2017 054   105     0     0     0     0     0    30  1.405     1     0     0     0     0
 2017 055   106     0     0     0     0     0    30  1.405     1     0     0     0     0
 2017 056   107     0     0     0     0     0    30  1.405     1     0     0     0     0
 2017 057   108     0     0     0     0     0    30  1.405     1     0     0     0     0
 2017 058   109     0     0     0     0     0    30  1.405     1     0     0     0     0
 2017 059   110     0     0     0     0     0    30  1.405     1     0     0     0     0
 2017 060   111     0     0     0     0     0    30  1.405     1     0     0     0     0
 2017 061   112     0     0     0     0     0    30  1.405     1     0     0     0     0
 2017 062   113     0     0     0     0     0    30  1.405     1     0     0     0     0
 2017 063   114     0     0     0     0     0    30  1.405     1     0     0     0     0
 2017 064   115     0     0     0     0     0    30  1.405     1     0     0     0     0
 2017 065   116     0     0     0     0     0    30  1.405     1     0     0     0     0
 2017 066   117     0     0     0     0     0    30  1.405     1     0     0     0     0
 2017 067   118     0     0     0     0     0    30  1.405     1     0     0     0     0
 2017 068   119     0     0     0     0     0    30  1.405     1     0     0     0     0
 2017 069   120     0     0     0     0     0    30  1.405     1     0     0     0     0
 2017 070   121     0     0     0     0     0    30  1.405     1     0     0     0     0
 2017 071   122     0     0     0     0     0    30  1.405     1     0     0     0     0
 2017 072   123     0     0     0     0     0    30  1.405     1     0     0     0     0
 2017 073   124     0     0     0     0     0    30  1.405     1     0     0     0     0
 2017 074   125     0     0     0     0     0    30  1.405     1     0     0     0     0
 2017 075   126     0     0     0     0     0    30  1.405     1     0     0     0     0
 2017 076   127     0     0     0     0     0    30  1.405     1     0     0     0     0
 2017 077   128     0     0     0     0     0    30  1.405     1     0     0     0     0
 2017 078   129     0     0     0     0     0    30  1.405     1     0     0     0     0
 2017 079   130     0     0     0     0     0    30  1.405     1     0     0     0     0
 2017 080   131     0     0     0     0     0    30  1.405     1     0     0     0     0
 2017 081   132     0     0     0     0     0    30  1.405     1     0     0     0     0
 2017 082   133     0     0     0     0     0    30  1.405     1     0     0     0     0
 2017 083   134     0     0     0     0     0    30  1.405     1     0     0     0     0
 2017 084   135     0     0     0     0     0    30  1.405     1     0     0     0     0
 2017 085   136     0     0     0     0     0    30  1.405     1     0     0     0     0
 2017 086   137     0     0     0     0     0    30  1.405     1     0     0     0     0
 2017 087   138     0     0     0     0     0    30  1.405     1     0     0     0     0
 2017 088   139     0     0     0     0     0    30  1.405     1     0     0     0     0
 2017 089   140     0     0     0     0     0    30  1.405     1     0     0     0     0
 2017 090   141     0     0     0     0     0    30  1.405     1     0     0     0     0
 2017 091   142     0     0     0     0     0    30  1.405     1     0     0     0     0
 2017 092   143     0     0     0     0     0    30  1.405     1     0     0     0     0
 2017 093   144     0     0     0     0     0    30  1.405     1     0     0     0     0
 2017 094   145     0     0     0     0     0    30  1.405     1     0     0     0     0
 2017 095   146     0     0     0     0     0    30  1.405     1     0     0     0     0
 2017 096   147     0     0     0     0     0    30  1.405     1     0     0     0     0
 2017 097   148     0     0     0     0     0    30  1.405     1     0     0     0     0
 2017 098   149     0     0     0     0     0    30  1.405     1     0     0     0     0
 2017 099   150     0     0     0     0     0    30  1.405     1     0     0     0     0
 2017 100   151     0     0     0     0     0    30  1.405     1     0     0     0     0
 2017 101   152     0     0     0     0     0    30  1.405     1     0     0     0     0
 2017 102   153     0     0     0     0     0    30  1.405     1     0     0     0     0
 2017 103   154     0     0     0     0     0    30  1.405     1     0     0     0     0
 2017 104   155     0     0     0     0     0    30  1.405     1     0     0     0     0
 2017 105   156     0     0     0     0     0    30  1.405     1     0     0     0     0
 2017 106   157     0     0     0     0     0    30  1.405     1     0     0     0     0
 2017 107   158     0     0     0     0     0    30  1.405     1     0     0     0     0
 2017 108   159     0     0     0     0     0    30  1.405     1     0     0     0     0
 2017 109   160     0     0     0     0     0    30  1.405     1     0     0     0     0
 2017 110   161     0     0     0     0     0    30  1.405     1     0     0     0     0
 2017 111   162     0     0     0     0     0    30  1.405     1     0     0     0     0
 2017 112   163     0     0     0     0     0    30  1.405     1     0     0     0     0
 2017 113   164     0     0     0     0     0    30  1.405     1     0     0     0     0
 2017 114   165     0     0     0     0     0    30  1.405     1     0     0     0     0
 2017 115   166     0     0     0     0     0    30  1.405     1     0     0     0     0
 2017 116   167     0     0     0     0     0    30  1.405     1     0     0     0     0
 2017 117   168     0     0     0     0     0    30  1.405     1     0     0     0     0
 2017 118   169     0     0     0     0     0    30  1.405     1     0     0     0     0
 2017 119   170     0     0     0     0     0    30  1.405     1     0     0     0     0
 2017 120   171     0     0     0     0     0    30  1.405     1     0     0     0     0
 2017 121   172     0     0     0     0     0    30  1.405     1     0     0     0     0
 2017 122   173     0     0     0     0     0    30  1.405     1     0     0     0     0
 2017 123   174     0     0     0     0     0    30  1.405     1     0     0     0     0
 2017 124   175     0     0     0     0     0    30  1.405     1     0     0     0     0
 2017 125   176     0     0     0     0     0    30  1.405     1     0     0     0     0
 2017 126   177     0     0     0     0     0    30  1.405     1     0     0     0     0
 2017 127   178     0     0     0     0     0    30  1.405     1     0     0     0     0
 2017 128   179     0     0     0     0     0    30  1.405     1     0     0     0     0
 2017 129   180     0     0     0     0     0    30  1.405     1     0     0     0     0
 2017 130   181     0     0     0     0     0    30  1.405     1     0     0     0     0
 2017 131   182     0     0     0     0     0    30  1.405     1     0     0     0     0
 2017 132   183     0     0     0     0     0    30  1.405     1     0     0     0     0
 2017 133   184     0     0     0     0     0    30  1.405     1     0     0     0     0
 2017 134   185     0     0     0     0     0    30  1.405     1     0     0     0     0
 2017 135   186     0     0     0     0     0    30  1.405     1     0     0     0     0
 2017 136   187     0     0     0     0     0    30  1.405     1     0     0     0     0
 2017 137   188     0     0     0     0     0    30  1.405     1     0     0     0     0
 2017 138   189     0     0     0     0     0    30  1.405     1     0     0     0     0
 2017 139   190     1     0     0     0     0    30  1.405     1     0     0     0     0
 2017 140   191     2     0     0     0     0    30  1.405     1     0     0     0     0
 2017 141   192     3     0     0     0     0    30  1.405     1     0     0     0     0
 2017 142   193     4     0     0     0     0    30  1.405     1     0     0     0     0
 2017 143   194     5     0     0     0     0    30  1.405     1     0     0     0     0
 2017 144   195     6     0     0     0     0    30  1.405     1     0     0     0     0
 2017 145   196     7     0     0     0     0    30  1.405     1     0     0     0     0
 2017 146   197     8     0     0     0     0    30  1.405     1     0     0     0     0
 2017 147   198     9     0     0     0     0    30  1.405     1     0     0     0     0
 2017 148   199    10     0     0     0     0    30  1.405     1     0     0     0     0
 2017 149   200    11     0     0     0     0    30  1.405     1     0     0     0     0
 2017 150   201    12     0     0     0     0    30  1.405     1     0     0     0     0
 2017 151   202    13     0     0     0     0    30  1.405     1     0     0     0     0
 2017 152   203    14     0     0     0     0    30  1.405     1     0     0     0     0
 2017 153   204    15     0     0     0     0    30  1.405     1     0     0     0     0
 2017 154   205    16     0     0     0     0    30  1.405     1     0     0     0     0
 2017 155   206    17     0     0     0     0    30  1.405     1     0     0     0     0
 2017 156   207    18     0     0     0     0    30  1.405     1     0     0     0     0
 2017 157   208    19     0     0     0     0    30  1.405     1     0     0     0     0
 2017 158   209    20     0     0     0     0    30  1.405     1     0     0     0     0
 2017 159   210    21     0     0     0     0    30  1.405     1     0     0     0     0
 2017 160   211    22     0     0     0     0    30  1.405     1     0     0     0     0
 2017 161   212    23     0     0     0     0    30  1.405     1     0     0     0     0
 2017 162   213    24     0     0     0     0    30  1.405     1     0     0     0     0
 2017 163   214    25     0     0     0     0    30  1.405     1     0     0     0     0
 2017 164   215    26     0     0     0     0    30  1.405     1     0     0     0     0
 2017 165   216    27     0     0     0     0    30  1.405     1     0     0     0     0
 2017 166   217    28     0     0     0     0    30  1.405     1     0     0     0     0
 2017 167   218    29     0     0     0     0    30  1.405     1     0     0     0     0
 2017 168   219    30     0     0     0     0    30  1.405     1     0     0     0     0
 2017 169   220    31     0     0     0     0    30  1.405     1     0     0     0     0
 2017 170   221    32     0     0     0     0    30  1.405     1     0     0     0     0
 2017 171   222    33     0     0     0     0    30  1.405     1     0     0     0     0
 2017 172   223    34     0     0     0     0    30  1.405     1     0     0     0     0
 2017 173   224    35     0     0     0     0    30  1.405     1     0     0     0     0
 2017 174   225    36     0     0     0     0    30  1.405     1     0     0     0     0
 2017 175   226    37     0     0     0     0    30  1.405     1     0     0     0     0
 2017 176   227    38     0     0     0     0    30  1.405     1     0     0     0     0
 2017 177   228    39     0     0     0     0    30  1.405     1     0     0     0     0
 2017 178   229    40     0     0     0     0    30  1.405     1     0     0     0     0
 2017 179   230    41     0     0     0     0    30  1.405     1     0     0     0     0
 2017 180   231    42     0     0     0     0    30  1.405     1     0     0     0     0
 2017 181   232    43     0     0     0     0    30  1.405     1     0     0     0     0
 2017 182   233    44     0     0     0     0    30  1.405     1     0     0     0     0
 2017 183   234    45     0     0     0     0    30  1.405     1     0     0     0     0
 2017 184   235    46     0     0     0     0    30  1.405     1     0     0     0     0
 2017 185   236    47     0     0     0     0    30  1.405     1     0     0     0     0
 2017 186   237    48     0     0     0     0    30  1.405     1     0     0     0     0
 2017 187   238    49     0     0     0     0    30  1.405     1     0     0     0     0
 2017 188   239    50     0     0     0     0    30  1.405     1     0     0     0     0
 2017 189   240    51     0     0     0     0    30  1.405     1     0     0     0     0
 2017 190   241    52     0     0     0     0    30  1.405     1     0     0     0     0
 2017 191   242    53     0     0     0     0    30  1.405     1     0     0     0     0
 2017 192   243    54     0     0     0     0    30  1.405     1     0     0     0     0
 2017 193   244    55     0     0     0     0    30  1.405     1     0     0     0     0
 2017 194   245    56     0     0     0     0    30  1.405     1     0     0     0     0
 2017 195   246    57     0     0     0     0    30  1.405     1     0     0     0     0
 2017 196   247    58     0     0     0     0    30  1.405     1     0     0     0     0
 2017 197   248    59     0     0     0     0    30  1.405     1     0     0     0     0
 2017 198   249    60     0     0     0     0    30  1.405     1     0     0     0     0
 2017 199   250    61     0     0     0     0    30  1.405     1     0     0     0     0
 2017 200   251    62     0     0     0     0    30  1.405     1     0     0     0     0
 2017 201   252    63     0     0     0     0    30  1.405     1     0     0     0     0
 2017 202   253    64     0     0     0     0    30  1.405     1     0     0     0     0
 2017 203   254    65     0     0     0     0    30  1.405     1     0     0     0     0
 2017 204   255    66     0     0     0     0    30  1.405     1     0     0     0     0
 2017 205   256    67     0     0     0     0    30  1.405     1     0     0     0     0
 2017 206   257    68     0     0     0     0    30  1.405     1     0     0     0     0
 2017 207   258    69     0     0     0     0    30  1.405     1     0     0     0     0
 2017 208   259    70     0     0     0     0    30  1.405     1     0     0     0     0
 2017 209   260    71     0     0     0     0    30  1.405     1     0     0     0     0
 2017 210   261    72     0     0     0     0    30  1.405     1     0     0     0     0
 2017 211   262    73     0     0     0     0    30  1.405     1     0     0     0     0
 2017 212   263    74     0     0     0     0    30  1.405     1     0     0     0     0
 2017 213   264    75     0     0     0     0    30  1.405     1     0     0     0     0
 2017 214   265    76     0     0     0     0    30  1.405     1     0     0     0     0
 2017 215   266    77     0     0     0     0    30  1.405     1     0     0     0     0
 2017 216   267    78     0     0     0     0    30  1.405     1     0     0     0     0
 2017 217   268    79     0     0     0     0    30  1.405     1     0     0     0     0
 2017 218   269    80     0     0     0     0    30  1.405     1     0     0     0     0
 2017 219   270    81     0     0     0     0    30  1.405     1     0     0     0     0
 2017 220   271    82     0     0     0     0    30  1.405     1     0     0     0     0
 2017 221   272    83     0     0     0     0    30  1.405     1     0     0     0     0
 2017 222   273    84     0     0     0     0    30  1.405     1     0     0     0     0
 2017 223   274    85     0     0     0     0    30  1.405     1     0     0     0     0
 2017 224   275    86     0     0     0     0    30  1.405     1     0     0     0     0
 2017 225   276    87     0     0     0     0    30  1.405     1     0     0     0     0
 2017 226   277    88     0     0     0     0    30  1.405     1     0     0     0     0
 2017 227   278    89     0     0     0     0    30  1.405     1     0     0     0     0
 2017 228   279    90     0     0     0     0    30  1.405     1     0     0     0     0
 2017 229   280    91     0     0     0     0    30  1.405     1     0     0     0     0
 2017 230   281    92     0     0     0     0    30  1.405     1     0     0     0     0
 2017 231   282    93     0     0     0     0    30  1.405     1     0     0     0     0
 2017 232   283    94     0     0     0     0    30  1.405     1     0     0     0     0
 2017 233   284    95     0     0     0     0    30  1.405     1     0     0     0     0
 2017 234   285    96     0     0     0     0    30  1.405     1     0     0     0     0
 2017 235   286    97     0     0     0     0    30  1.405     1     0     0     0     0
 2017 236   287    98     0     0     0     0    30  1.405     1     0     0     0     0
 2017 237   288    99     0     0     0     0    30  1.405     1     0     0     0     0
 2017 238   289   100     0     0     0     0    30  1.405     1     0     0     0     0
 2017 239   290   101     0     0     0     0    30  1.405     1     0     0     0     0
 2017 240   291   102     0     0     0     0    30  1.405     1     0     0     0     0
 2017 241   292   103     0     0     0     0    30  1.405     1     0     0     0     0
 2017 242   293   104     0     0     0     0    30  1.405     1     0     0     0     0
 2017 243   294   105     0     0     0     0    30  1.405     1     0     0     0     0
 2017 244   295   106     0     0     0     0    30  1.405     1     0     0     0     0
 2017 245   296   107     0     0     0     0    30  1.405     1     0     0     0     0
 2017 246   297   108     0     0     0     0    30  1.405     1     0     0     0     0
 2017 247   298   109     0     0     0     0    30  1.405     1     0     0     0     0
 2017 248   299   110     0     0     0     0    30  1.405     1     0     0     0     0
 2017 249   300   111     0     0     0     0    30  1.405     1     0     0     0     0
 2017 250   301   112     0     0     0     0    30  1.405     1     0     0     0     0
 2017 251   302   113     0     0     0     0    30  1.405     1     0     0     0     0
 2017 252   303   114     0     0     0     0    30  1.405     1     0     0     0     0
 2017 253   304   115     0     0     0     0    30  1.405     1     0     0     0     0
 2017 254   305   116     0     0     0     0    30  1.405     1     0     0     0     0
 2017 255   306   117     0     0     0     0    30  1.405     1     0     0     0     0
 2017 256   307   118     0     0     0     0    30  1.405     1     0     0     0     0
 2017 257   308   119     0     0     0     0    30  1.405     1     0     0     0     0
 2017 258   309   120     0     0     0     0    30  1.405     1     0     0     0     0
 2017 259   310   121     0     0     0     0    30  1.405     1     0     0     0     0
 2017 260   311   122     0     0     0     0    30  1.405     1     0     0     0     0
 2017 261   312   123     0     0     0     0    30  1.405     1     0     0     0     0
 2017 262   313   124     0     0     0     0    30  1.405     1     0     0     0     0
 2017 263   314   125     0     0     0     0    30  1.405     1     0     0     0     0
 2017 264   315   126     0     0     0     0    30  1.405     1     0     0     0     0
 2017 265   316   127     0     0     0     0    30  1.405     1     0     0     0     0
 2017 266   317   128     0     0     0     0    30  1.405     1     0     0     0     0
 2017 267   318   129     0     0     0     0    30  1.405     1     0     0     0     0
 2017 268   319   130     0     0     0     0    30  1.405     1     0     0     0     0
 2017 269   320   131     0     0     0     0    30  1.405     1     0     0     0     0
 2017 270   321   132     0     0     0     0    30  1.405     1     0     0     0     0
 2017 271   322   133     0     0     0     0    30  1.405     1     0     0     0     0
 2017 272   323   134     0     0     0     0    30  1.405     1     0     0     0     0
 2017 273   324   135     0     0     0     0    30  1.405     1     0     0     0     0
 2017 274   325   136     0     0     0     0    30  1.405     1     0     0     0     0
 2017 275   326   137     0     0     0     0    30  1.405     1     0     0     0     0
 2017 276   327   138     0     0     0     0    30  1.405     1     0     0     0     0
 2017 277   328   139     0     0     0     0    30  1.405     1     0     0     0     0
 2017 278   329   140     0     0     0     0    30  1.405     1     0     0     0     0
 2017 279   330   141     0     0     0     0    30  1.405     1     0     0     0     0
 2017 280   331   142     0     0     0     0    30  1.405     1     0     0     0     0
 2017 281   332   143     0     0     0     0    30  1.405     1     0     0     0     0
 2017 282   333   144     0     0     0     0    30  1.405     1     0     0     0     0
 2017 283   334   145     0     0     0     0    30  1.405     1     0     0     0     0
 2017 284   335   146     0     0     0     0    30  1.405     1     0     0     0     0
 2017 285   336   147     0     0     0     0    30  1.405     1     0     0     0     0
 2017 286   337   148     0     0     0     0    30  1.405     1     0     0     0     0
 2017 287   338   149     0     0     0     0    30  1.405     1     0     0     0     0
 2017 288   339   150     0     0     0     0    30  1.405     1     0     0     0     0
