*Surface Mulch daily output file

*DSSAT Cropping System Model Ver. 4.6.1.000 -release      APR 22, 2019; 09:45:14
                                                                                
*RUN   1        : Sim1                      MZCER046 UINT1601    1              
 MODEL          : MZCER046 - Maize                                              
 EXPERIMENT     : UINT1601 MZ N TRACK                                           
 DATA PATH      :                                                               
 TREATMENT  1   : Sim1                      MZCER046                            
  
@YEAR DOY   DAS    MCFD   MDEPD    MWAD    MWTD
 2016 315     0   0.000    0.00       0    0.00
 2016 316     1   0.000    0.00       0    0.00
 2016 317     2   0.000    0.00       0    0.00
 2016 318     3   0.000    0.00       0    0.00
 2016 319     4   0.000    0.00       0    0.00
 2016 320     5   0.000    0.00       0    0.00
 2016 321     6   0.000    0.00       0    0.00
 2016 322     7   0.000    0.00       0    0.00
 2016 323     8   0.000    0.00       0    0.00
 2016 324     9   0.000    0.00       0    0.00
 2016 325    10   0.000    0.00       0    0.00
 2016 326    11   0.000    0.00       0    0.00
 2016 327    12   0.000    0.00       0    0.00
 2016 328    13   0.000    0.00       0    0.00
 2016 329    14   0.000    0.00       0    0.00
 2016 330    15   0.000    0.00       0    0.00
 2016 331    16   0.000    0.00       0    0.00
 2016 332    17   0.000    0.00       0    0.00
 2016 333    18   0.000    0.00       0    0.00
 2016 334    19   0.000    0.00       0    0.00
 2016 335    20   0.000    0.00       0    0.00
 2016 336    21   0.000    0.00       0    0.00
 2016 337    22   0.000    0.00       0    0.00
 2016 338    23   0.000    0.00       0    0.00
 2016 339    24   0.000    0.00       0    0.00
 2016 340    25   0.000    0.00       0    0.00
 2016 341    26   0.000    0.00       0    0.00
 2016 342    27   0.000    0.00       0    0.00
 2016 343    28   0.000    0.00       0    0.00
 2016 344    29   0.000    0.00       0    0.00
 2016 345    30   0.000    0.00       0    0.00
 2016 346    31   0.000    0.00       0    0.00
 2016 347    32   0.000    0.00       0    0.00
 2016 348    33   0.000    0.00       0    0.00
 2016 349    34   0.000    0.00       0    0.00
 2016 350    35   0.000    0.00       0    0.00
 2016 351    36   0.000    0.00       0    0.00
 2016 352    37   0.000    0.00       0    0.00
 2016 353    38   0.000    0.00       0    0.00
 2016 354    39   0.000    0.00       0    0.00
 2016 355    40   0.000    0.00       0    0.00
 2016 356    41   0.000    0.00       0    0.00
 2016 357    42   0.000    0.00       0    0.00
 2016 358    43   0.000    0.00       0    0.00
 2016 359    44   0.000    0.00       0    0.00
 2016 360    45   0.000    0.00       0    0.00
 2016 361    46   0.000    0.00       0    0.00
 2016 362    47   0.000    0.00       0    0.00
 2016 363    48   0.000    0.00       0    0.00
 2016 364    49   0.000    0.00       0    0.00
 2016 365    50   0.000    0.00       0    0.00
 2016 366    51   0.000    0.00       0    0.00
 2017 001    52   0.000    0.00       0    0.00
 2017 002    53   0.000    0.00       0    0.00
 2017 003    54   0.000    0.00       0    0.00
 2017 004    55   0.000    0.00       0    0.00
 2017 005    56   0.000    0.00       0    0.00
 2017 006    57   0.000    0.00       0    0.00
 2017 007    58   0.000    0.00       0    0.00
 2017 008    59   0.000    0.00       0    0.00
 2017 009    60   0.000    0.00       0    0.00
 2017 010    61   0.000    0.00       0    0.00
 2017 011    62   0.000    0.00       0    0.00
 2017 012    63   0.000    0.00       0    0.00
 2017 013    64   0.000    0.00       0    0.00
 2017 014    65   0.000    0.00       0    0.00
 2017 015    66   0.000    0.00       0    0.00
 2017 016    67   0.000    0.00       0    0.00
 2017 017    68   0.000    0.00       0    0.00
 2017 018    69   0.000    0.00       0    0.00
 2017 019    70   0.000    0.00       0    0.00
 2017 020    71   0.000    0.00       0    0.00
 2017 021    72   0.000    0.00       0    0.00
 2017 022    73   0.000    0.00       0    0.00
 2017 023    74   0.000    0.00       0    0.00
 2017 024    75   0.000    0.00       0    0.00
 2017 025    76   0.000    0.00       0    0.00
 2017 026    77   0.000    0.00       0    0.00
 2017 027    78   0.000    0.00       0    0.00
 2017 028    79   0.000    0.00       0    0.00
 2017 029    80   0.000    0.00       0    0.00
 2017 030    81   0.000    0.00       0    0.00
 2017 031    82   0.000    0.00       0    0.00
 2017 032    83   0.000    0.00       0    0.00
 2017 033    84   0.000    0.00       0    0.00
 2017 034    85   0.000    0.00       0    0.00
 2017 035    86   0.000    0.00       0    0.00
 2017 036    87   0.000    0.00       0    0.00
 2017 037    88   0.000    0.00       0    0.00
 2017 038    89   0.000    0.00       0    0.00
 2017 039    90   0.000    0.00       0    0.00
 2017 040    91   0.000    0.00       0    0.00
 2017 041    92   0.000    0.00       0    0.00
 2017 042    93   0.000    0.00       0    0.00
 2017 043    94   0.000    0.00       0    0.00
 2017 044    95   0.000    0.00       0    0.00
 2017 045    96   0.000    0.00       0    0.00
 2017 046    97   0.000    0.00       0    0.00
 2017 047    98   0.000    0.00       0    0.00
 2017 048    99   0.000    0.00       0    0.00
 2017 049   100   0.000    0.00       0    0.00
 2017 050   101   0.000    0.00       0    0.00
 2017 051   102   0.000    0.00       0    0.00
 2017 052   103   0.000    0.00       0    0.00
 2017 053   104   0.000    0.00       0    0.00
 2017 054   105   0.000    0.00       0    0.00
 2017 055   106   0.000    0.00       0    0.00
 2017 056   107   0.000    0.00       0    0.00
 2017 057   108   0.000    0.00       0    0.00
 2017 058   109   0.000    0.00       0    0.00
 2017 059   110   0.000    0.00       0    0.00
 2017 060   111   0.000    0.00       0    0.00
 2017 061   112   0.000    0.00       0    0.00
 2017 062   113   0.000    0.00       0    0.00
 2017 063   114   0.000    0.00       0    0.00
 2017 064   115   0.000    0.00       0    0.00
 2017 065   116   0.000    0.00       0    0.00
 2017 066   117   0.000    0.00       0    0.00
 2017 067   118   0.000    0.00       0    0.00
 2017 068   119   0.000    0.00       0    0.00
 2017 069   120   0.000    0.00       0    0.00
 2017 070   121   0.000    0.00       0    0.00
 2017 071   122   0.000    0.00       0    0.00
 2017 072   123   0.000    0.00       0    0.00
 2017 073   124   0.000    0.00       0    0.00
 2017 074   125   0.000    0.00       0    0.00
 2017 075   126   0.000    0.00       0    0.00
 2017 076   127   0.000    0.00       0    0.00
 2017 077   128   0.000    0.00       0    0.00
 2017 078   129   0.000    0.00       0    0.00
 2017 079   130   0.000    0.00       0    0.00
 2017 080   131   0.000    0.00       0    0.00
 2017 081   132   0.000    0.00       0    0.00
 2017 082   133   0.000    0.00       0    0.00
 2017 083   134   0.000    0.00       0    0.00
 2017 084   135   0.000    0.00       0    0.00
 2017 085   136   0.000    0.00       0    0.00
 2017 086   137   0.000    0.00       0    0.00
 2017 087   138   0.000    0.00       0    0.00
 2017 088   139   0.000    0.00       0    0.00
 2017 089   140   0.000    0.00       0    0.00
 2017 090   141   0.000    0.00       0    0.00
 2017 091   142   0.000    0.00       0    0.00
 2017 092   143   0.000    0.00       0    0.00
 2017 093   144   0.000    0.00       0    0.00
 2017 094   145   0.000    0.00       0    0.00
 2017 095   146   0.000    0.00       0    0.00
 2017 096   147   0.000    0.00       0    0.00
 2017 097   148   0.000    0.00       0    0.00
 2017 098   149   0.000    0.00       0    0.00
 2017 099   150   0.000    0.00       0    0.00
 2017 100   151   0.000    0.00       0    0.00
 2017 101   152   0.000    0.00       0    0.00
 2017 102   153   0.000    0.00       0    0.00
 2017 103   154   0.000    0.00       0    0.00
 2017 104   155   0.000    0.00       0    0.00
 2017 105   156   0.000    0.00       0    0.00
 2017 106   157   0.000    0.00       0    0.00
 2017 107   158   0.000    0.00       0    0.00
 2017 108   159   0.000    0.00       0    0.00
 2017 109   160   0.000    0.00       0    0.00
 2017 110   161   0.000    0.00       0    0.00
 2017 111   162   0.000    0.00       0    0.00
 2017 112   163   0.000    0.00       0    0.00
 2017 113   164   0.000    0.00       0    0.00
 2017 114   165   0.000    0.00       0    0.00
 2017 115   166   0.000    0.00       0    0.00
 2017 116   167   0.000    0.00       0    0.00
 2017 117   168   0.000    0.00       0    0.00
 2017 118   169   0.000    0.00       0    0.00
 2017 119   170   0.000    0.00       0    0.00
 2017 120   171   0.000    0.00       0    0.00
 2017 121   172   0.000    0.00       0    0.00
 2017 122   173   0.000    0.00       0    0.00
 2017 123   174   0.000    0.00       0    0.00
 2017 124   175   0.000    0.00       0    0.00
 2017 125   176   0.000    0.00       0    0.00
 2017 126   177   0.000    0.00       0    0.00
 2017 127   178   0.000    0.00       0    0.00
 2017 128   179   0.000    0.00       0    0.00
 2017 129   180   0.000    0.00       0    0.00
 2017 130   181   0.000    0.00       0    0.00
 2017 131   182   0.000    0.00       0    0.00
 2017 132   183   0.000    0.00       0    0.00
 2017 133   184   0.000    0.00       0    0.00
 2017 134   185   0.000    0.00       0    0.00
 2017 135   186   0.000    0.00       0    0.00
 2017 136   187   0.000    0.00       0    0.00
 2017 137   188   0.000    0.00       0    0.00
 2017 138   189   0.000    0.00       0    0.00
 2017 139   190   0.000    0.00       0    0.00
 2017 140   191   0.000    0.00       0    0.00
 2017 141   192   0.000    0.00       0    0.00
 2017 142   193   0.000    0.00       0    0.00
 2017 143   194   0.000    0.00       0    0.00
 2017 144   195   0.000    0.00       0    0.00
 2017 145   196   0.000    0.00       0    0.00
 2017 146   197   0.000    0.00       0    0.00
 2017 147   198   0.000    0.00       0    0.00
 2017 148   199   0.000    0.00       0    0.00
 2017 149   200   0.000    0.00       0    0.00
 2017 150   201   0.000    0.00       0    0.00
 2017 151   202   0.000    0.00       0    0.00
 2017 152   203   0.000    0.00       0    0.00
 2017 153   204   0.000    0.00       0    0.00
 2017 154   205   0.000    0.00       0    0.00
 2017 155   206   0.000    0.00       0    0.00
 2017 156   207   0.000    0.00       0    0.00
 2017 157   208   0.000    0.00       0    0.00
 2017 158   209   0.000    0.00       0    0.00
 2017 159   210   0.000    0.00       0    0.00
 2017 160   211   0.000    0.00       0    0.00
 2017 161   212   0.000    0.00       0    0.00
 2017 162   213   0.000    0.00       0    0.00
 2017 163   214   0.000    0.00       0    0.00
 2017 164   215   0.000    0.00       0    0.00
 2017 165   216   0.000    0.00       0    0.00
 2017 166   217   0.000    0.00       0    0.00
 2017 167   218   0.000    0.00       0    0.00
 2017 168   219   0.000    0.00       0    0.00
 2017 169   220   0.000    0.00       0    0.00
 2017 170   221   0.000    0.00       0    0.00
 2017 171   222   0.000    0.00       0    0.00
 2017 172   223   0.000    0.00       0    0.00
 2017 173   224   0.000    0.00       0    0.00
 2017 174   225   0.000    0.00       0    0.00
 2017 175   226   0.000    0.00       0    0.00
 2017 176   227   0.000    0.00       0    0.00
 2017 177   228   0.000    0.00       0    0.00
 2017 178   229   0.000    0.00       0    0.00
 2017 179   230   0.000    0.00       0    0.00
 2017 180   231   0.000    0.00       0    0.00
 2017 181   232   0.000    0.00       0    0.00
 2017 182   233   0.000    0.00       0    0.00
 2017 183   234   0.000    0.00       0    0.00
 2017 184   235   0.000    0.00       0    0.00
 2017 185   236   0.000    0.00       0    0.00
 2017 186   237   0.000    0.00       0    0.00
 2017 187   238   0.000    0.00       0    0.00
 2017 188   239   0.000    0.00       0    0.00
 2017 189   240   0.000    0.00       0    0.00
 2017 190   241   0.000    0.00       0    0.00
 2017 191   242   0.000    0.00       0    0.00
 2017 192   243   0.000    0.00       0    0.00
 2017 193   244   0.000    0.00       0    0.00
 2017 194   245   0.000    0.00       0    0.00
 2017 195   246   0.000    0.00       0    0.00
 2017 196   247   0.000    0.00       0    0.00
 2017 197   248   0.000    0.00       0    0.00
 2017 198   249   0.000    0.00       0    0.00
 2017 199   250   0.000    0.00       0    0.00
 2017 200   251   0.000    0.00       0    0.00
 2017 201   252   0.000    0.00       0    0.00
 2017 202   253   0.000    0.00       0    0.00
 2017 203   254   0.000    0.00       0    0.00
 2017 204   255   0.000    0.00       0    0.00
 2017 205   256   0.000    0.00       0    0.00
 2017 206   257   0.000    0.00       0    0.00
 2017 207   258   0.000    0.00       0    0.00
 2017 208   259   0.000    0.00       0    0.00
 2017 209   260   0.000    0.00       0    0.00
 2017 210   261   0.000    0.00       0    0.00
 2017 211   262   0.000    0.00       0    0.00
 2017 212   263   0.000    0.00       0    0.00
 2017 213   264   0.000    0.00       0    0.00
 2017 214   265   0.000    0.00       0    0.00
 2017 215   266   0.000    0.00       0    0.00
 2017 216   267   0.000    0.00       0    0.00
 2017 217   268   0.000    0.00       0    0.00
 2017 218   269   0.000    0.00       0    0.00
 2017 219   270   0.000    0.00       0    0.00
 2017 220   271   0.000    0.00       0    0.00
 2017 221   272   0.000    0.00       0    0.00
 2017 222   273   0.000    0.00       0    0.00
 2017 223   274   0.000    0.00       0    0.00
 2017 224   275   0.000    0.00       0    0.00
 2017 225   276   0.000    0.00       0    0.00
 2017 226   277   0.000    0.00       0    0.00
 2017 227   278   0.000    0.00       0    0.00
 2017 228   279   0.000    0.00       0    0.00
 2017 229   280   0.000    0.00       0    0.00
 2017 230   281   0.000    0.00       0    0.00
 2017 231   282   0.000    0.00       0    0.00
 2017 232   283   0.000    0.00       0    0.00
 2017 233   284   0.000    0.00       0    0.00
 2017 234   285   0.000    0.00       0    0.00
 2017 235   286   0.000    0.00       0    0.00
 2017 236   287   0.000    0.00       0    0.00
 2017 237   288   0.000    0.00       0    0.00
 2017 238   289   0.000    0.00       0    0.00
 2017 239   290   0.000    0.00       0    0.00
 2017 240   291   0.000    0.00       0    0.00
 2017 241   292   0.000    0.00       0    0.00
 2017 242   293   0.000    0.00       0    0.00
 2017 243   294   0.000    0.00       0    0.00
 2017 244   295   0.000    0.00       0    0.00
 2017 245   296   0.000    0.00       0    0.00
 2017 246   297   0.000    0.00       0    0.00
 2017 247   298   0.000    0.00       0    0.00
 2017 248   299   0.000    0.00       0    0.00
 2017 249   300   0.000    0.00       0    0.00
 2017 250   301   0.000    0.00       0    0.00
 2017 251   302   0.000    0.00       0    0.00
 2017 252   303   0.000    0.00       0    0.00
 2017 253   304   0.000    0.00       0    0.00
 2017 254   305   0.000    0.00       0    0.00
 2017 255   306   0.000    0.00       0    0.00
 2017 256   307   0.000    0.00       0    0.00
 2017 257   308   0.000    0.00       0    0.00
 2017 258   309   0.000    0.00       0    0.00
 2017 259   310   0.000    0.00       0    0.00
 2017 260   311   0.000    0.00       0    0.00
 2017 261   312   0.000    0.00       0    0.00
 2017 262   313   0.000    0.00       0    0.00
 2017 263   314   0.000    0.00       0    0.00
 2017 264   315   0.000    0.00       0    0.00
 2017 265   316   0.000    0.00       0    0.00
 2017 266   317   0.000    0.00       0    0.00
 2017 267   318   0.000    0.00       0    0.00
 2017 268   319   0.000    0.00       0    0.00
 2017 269   320   0.000    0.00       0    0.00
 2017 270   321   0.000    0.00       0    0.00
 2017 271   322   0.000    0.00       0    0.00
 2017 272   323   0.000    0.00       0    0.00
 2017 273   324   0.000    0.00       0    0.00
 2017 274   325   0.000    0.00       0    0.00
 2017 275   326   0.000    0.00       0    0.00
 2017 276   327   0.000    0.00       0    0.00
 2017 277   328   0.000    0.00       0    0.00
 2017 278   329   0.000    0.00       0    0.00
 2017 279   330   0.000    0.00       0    0.00
 2017 280   331   0.000    0.00       0    0.00
 2017 281   332   0.000    0.00       0    0.00
 2017 282   333   0.000    0.00       0    0.00
 2017 283   334   0.000    0.00       0    0.00
 2017 284   335   0.000    0.00       0    0.00
 2017 285   336   0.000    0.00       0    0.00
 2017 286   337   0.000    0.00       0    0.00
 2017 287   338   0.000    0.00       0    0.00
 2017 288   339   0.000    0.00       0    0.00
