*GROWTH ASPECTS OUTPUT FILE

*DSSAT Cropping System Model Ver. 4.6.1.000 -release      APR 22, 2019; 09:45:14
                                                                                
*RUN   1        : Sim1                      MZCER046 UINT1601    1              
 MODEL          : MZCER046 - Maize                                              
 EXPERIMENT     : UINT1601 MZ N TRACK                                           
 DATA PATH      :                                                               
 TREATMENT  1   : Sim1                      MZCER046                            
  
!                                                                                                                                                                                                                                      Root Dens. (cm/cm3) by soil depth (cm):
!                                                                                                                                                                                                                                      0-5    5-15   15-30   30-45   45-60   60-90  90-120 120-150
@YEAR DOY   DAS   DAP   L#SD   GSTD   LAID   LWAD   SWAD   GWAD   RWAD   VWAD   CWAD   G#AD   GWGD   HIAD   PWAD   P#AD   WSPD   WSGD   NSTD   EWSD  PST1A  PST2A   KSTD   LN%D   SH%D   HIPD   PWDD   PWTD     SLAD   CHTD   CWID   RDPD    RL1D    RL2D    RL3D    RL4D    RL5D    RL6D    RL7D    RL8D   CDAD   LDAD   SDAD   SNW0C   SNW1C  DTTD
 2017 138   189     0    0.0      0   0.00      0      0      0      0      0      0      0    0.0  0.000      0      0  0.000  0.000  0.000  0.000  0.000  0.000  0.000   0.00   0.00   0.00      0      0      0.0   0.00   0.00   0.04    0.00    0.00    0.00    0.00    0.00    0.00    0.00    0.00      0      0      0       0       0 17.04
 2017 139   190     1    0.0      0   0.00      0      0      0      0      0      0      0    0.0  0.000      0      0  0.000  0.000  0.000  0.000  0.000  0.000  0.000   0.00   0.00   0.00      0      0      0.0   0.00   0.00   0.06    0.00    0.00    0.00    0.00    0.00    0.00    0.00    0.00      0      0      0       0       0 15.02
 2017 140   191     2    0.0      0   0.00      0      0      0      0      0      0      0    0.0  0.000      0      0  0.000  0.000  0.000  0.000  0.000  0.000  0.000   0.00   0.00   0.00      0      0      0.0   0.00   0.00   0.07    0.00    0.00    0.00    0.00    0.00    0.00    0.00    0.00      0      0      0       0       0  7.20
 2017 141   192     3    0.0      0   0.00      0      0      0      0      0      0      0    0.0  0.000      0      0  0.000  0.000  0.000  0.000  0.000  0.000  0.000   0.00   0.00   0.00      0      0      0.0   0.00   0.00   0.07    0.00    0.00    0.00    0.00    0.00    0.00    0.00    0.00      0      0      0       0       0  0.06
 2017 142   193     4    0.0      0   0.00      0      0      0      0      0      0      0    0.0  0.000      0      0  0.000  0.000  0.000  0.000  0.000  0.000  0.000   0.00   0.00   0.00      0      0      0.0   0.00   0.00   0.08    0.00    0.00    0.00    0.00    0.00    0.00    0.00    0.00      0      0      0       0       0  6.25
 2017 143   194     5    0.0      0   0.00      0      0      0      0      0      0      0    0.0  0.000      0      0  0.000  0.000  0.000  0.000  0.000  0.000  0.000   0.00   0.00   0.00      0      0      0.0   0.00   0.00   0.09    0.00    0.00    0.00    0.00    0.00    0.00    0.00    0.00      0      0      0       0       0  2.92
 2017 144   195     6    0.0      0   0.00      0      0      0      0      0      0      0    0.0  0.000      0      0  0.000  0.000  0.000  0.000  0.000  0.000  0.000   0.00   0.00   0.00      0      0      0.0   0.00   0.00   0.10    0.00    0.00    0.00    0.00    0.00    0.00    0.00    0.00      0      0      0       0       0  9.37
 2017 145   196     7    0.0      0   0.00      0      0      0      0      0      0      0    0.0  0.000      0      0  0.000  0.000  0.000  0.000  0.000  0.000  0.000   0.00   0.00   0.00      0      0      0.0   0.00   0.00   0.11    0.00    0.00    0.00    0.00    0.00    0.00    0.00    0.00      0      0      0       0       0  5.36
 2017 146   197     8    0.0      0   0.00      0      0      0      0      0      0      0    0.0  0.000      0      0  0.000  0.000  0.000  0.000  0.000  0.000  0.000   0.00   0.00   0.00      0      0      0.0   0.00   0.00   0.12    0.00    0.00    0.00    0.00    0.00    0.00    0.00    0.00      0      0      0       0       0  5.60
 2017 147   198     9    0.0      0   0.00      0      0      0      0      0      0      0    0.0  0.000      0      0  0.000  0.000  0.000  0.000  0.000  0.000  0.000   0.00   0.00   0.00      0      0      0.0   0.00   0.00   0.13    0.00    0.00    0.00    0.00    0.00    0.00    0.00    0.00      0      0      0       0       0  8.26
 2017 148   199    10    0.0      0   0.00      0      0      0      0      0      0      0    0.0  0.000      0      0  0.000  0.000  0.000  0.000  0.000  0.000  0.000   0.00   0.00   0.00      0      0      0.0   0.00   0.00   0.14    0.00    0.00    0.00    0.00    0.00    0.00    0.00    0.00      0      0      0       0       0  8.59
 2017 149   200    11    0.0      0   0.00      0      0      0      0      0      0      0    0.0  0.000      0      0  0.000  0.000  0.000  0.000  0.000  0.000  0.000   0.00   0.00   0.00      0      0      0.0   0.00   0.00   0.16    0.00    0.00    0.00    0.00    0.00    0.00    0.00    0.00      0      0      0       0       0 12.11
 2017 150   201    12    1.0      1   0.00     14     14      0     14     28     28      0    0.0  0.000      0      0  0.000  0.000  0.012  0.000  0.000  0.000  0.000   4.40   0.00   0.00      0      0     17.3   0.00   0.00   0.17    0.26    0.13    0.01    0.00    0.00    0.00    0.00    0.00      0      0      0       0       0 11.40
 2017 151   202    13    2.0      1   0.00     14     14      0     14     28     28      0    0.0  0.000      0      0  0.000  0.000  0.011  0.000  0.000  0.000  0.000   4.40   0.00   0.00      0      0     28.7   0.00   0.00   0.18    0.25    0.13    0.00    0.00    0.00    0.00    0.00    0.00      0      0      0       0       0  9.53
 2017 152   203    14    2.0      1   0.01     14     14      0     14     28     28      0    0.0  0.000      0      0  0.000  0.000  0.007  0.074  0.000  0.000  0.000   4.40   0.00   0.00      0      0     39.3   0.00   0.00   0.19    0.25    0.13    0.00    0.00    0.00    0.00    0.00    0.00      0      0      0       0       0  8.87
 2017 153   204    15    2.0      1   0.01     14     14      0     15     28     28      0    0.0  0.000      0      0  0.000  0.000  0.002  0.006  0.000  0.000  0.000   4.40   0.00   0.00      0      0     51.7   0.00   0.00   0.19    0.25    0.13    0.00    0.00    0.00    0.00    0.00    0.00      0      0      0       0       0  8.82
 2017 154   205    16    2.0      1   0.01     14     14      0     16     28     28      0    0.0  0.000      0      0  0.000  0.000  0.000  0.002  0.000  0.000  0.000   4.40   0.00   0.00      0      0     69.3   0.00   0.00   0.20    0.25    0.13    0.01    0.00    0.00    0.00    0.00    0.00      0      0      0       0       0 11.48
 2017 155   206    17    3.0      1   0.01     14     14      0     16     28     28      0    0.0  0.000      0      0  0.000  0.000  0.000  0.000  0.000  0.000  0.000   4.40   0.00   0.00      0      0     93.5   0.01   0.00   0.21    0.26    0.14    0.01    0.00    0.00    0.00    0.00    0.00      0      0      0       0       0 14.25
 2017 156   207    18    3.0      1   0.02     14     14      0     18     28     28      0    0.0  0.000      0      0  0.000  0.000  0.000  0.000  0.000  0.000  0.000   4.40   0.00   0.00      0      0    127.4   0.01   0.00   0.23    0.28    0.15    0.01    0.00    0.00    0.00    0.00    0.00      0      0      0       0       0 18.15
 2017 157   208    19    4.0      1   0.03     14     14      0     19     28     28      0    0.0  0.000      0      0  0.000  0.000  0.000  0.000  0.000  0.000  0.000   4.40   0.00   0.00      0      0    223.7   0.02   0.00   0.24    0.30    0.16    0.02    0.00    0.00    0.00    0.00    0.00      0      0      0       0       0 15.74
 2017 158   209    20    4.0      1   0.04     14     14      0     22     28     28      0    0.0  0.000      0      0  0.000  0.000  0.000  0.000  0.000  0.000  0.000   4.40   0.00   0.00      0      0    298.1   0.02   0.00   0.25    0.34    0.19    0.03    0.00    0.00    0.00    0.00    0.00      0      0      0       0       0 11.08
 2017 159   210    21    4.0      1   0.05     16     14      0     25     30     30      0    0.0  0.000      0      0  0.000  0.000  0.000  0.000  0.000  0.000  0.000   4.17   0.00   0.00      0      0    335.5   0.03   0.00   0.26    0.38    0.21    0.04    0.00    0.00    0.00    0.00    0.00      0      0      0       0       0 10.77
 2017 160   211    22    4.0      1   0.06     20     14      0     28     34     34      0    0.0  0.000      0      0  0.000  0.000  0.000  0.000  0.000  0.000  0.000   3.63   0.00   0.00      0      0    319.0   0.03   0.00   0.27    0.41    0.23    0.04    0.00    0.00    0.00    0.00    0.00      0      0      0       0       0 10.43
 2017 161   212    23    5.0      1   0.08     27     14      0     30     41     41      0    0.0  0.000      0      0  0.000  0.000  0.000  0.000  0.000  0.000  0.000   3.26   0.00   0.00      0      0    299.2   0.04   0.00   0.28    0.44    0.25    0.05    0.00    0.00    0.00    0.00    0.00      0      0      0       0       0 14.76
 2017 162   213    24    5.0      1   0.10     37     14      0     33     51     51      0    0.0  0.000      0      0  0.000  0.000  0.000  0.000  0.000  0.000  0.000   3.15   0.00   0.00      0      0    280.9   0.05   0.00   0.29    0.47    0.26    0.06    0.00    0.00    0.00    0.00    0.00      0      0      0       0       0 16.65
 2017 163   214    25    5.0      2   0.14     48     14      0     37     62     62      0    0.0  0.000      0      0  0.000  0.000  0.000  0.000  0.000  0.000  0.000   3.17   0.00   0.00      0      0    285.0   0.07   0.00   0.31    0.53    0.29    0.08    0.00    0.00    0.00    0.00    0.00      0      0      0       0       0 18.03
 2017 164   215    26    6.0      2   0.17     65     14      0     40     79     79      0    0.0  0.000      0      0  0.000  0.000  0.009  0.000  0.000  0.000  0.000   3.04   0.00   0.00      0      0    267.3   0.08   0.00   0.32    0.57    0.31    0.09    0.00    0.00    0.00    0.00    0.00      0      0      0       0       1 19.99
 2017 165   216    27    6.0      2   0.22     86     14      0     45    100    100      0    0.0  0.000      0      0  0.000  0.000  0.000  0.000  0.000  0.000  0.000   3.04   0.00   0.00      0      0    252.3   0.11   0.00   0.35    0.63    0.34    0.11    0.01    0.00    0.00    0.00    0.00      0      0      0       0       1 19.79
 2017 166   217    28    7.0      2   0.27    111     14      0     52    125    125      0    0.0  0.000      0      0  0.000  0.000  0.000  0.000  0.000  0.000  0.000   3.06   0.00   0.00      0      0    239.6   0.13   0.00   0.38    0.72    0.38    0.13    0.02    0.00    0.00    0.00    0.00      0      0      0       0       1 19.39
 2017 167   218    29    7.0      2   0.32    139     14      0     61    153    153      0    0.0  0.000      0      0  0.000  0.000  0.000  0.000  0.000  0.000  0.000   3.80   0.00   0.00      0      0    228.6   0.15   0.00   0.40    0.80    0.44    0.16    0.04    0.00    0.00    0.00    0.00      0      0      0       0       1 19.16
 2017 168   219    30    7.0      2   0.37    168     14      0     73    182    182      0    0.0  0.000      0      0  0.000  0.000  0.000  0.000  0.000  0.000  0.000   3.75   0.00   0.00      0      0    219.8   0.18   0.00   0.43    0.88    0.52    0.21    0.07    0.00    0.00    0.00    0.00      0      0      0       0       2 17.15
 2017 169   220    31    8.0      2   0.41    194     14      0     91    208    208      0    0.0  0.000      0      0  0.000  0.000  0.000  0.173  0.000  0.000  0.000   3.71   0.00   0.00      0      0    213.2   0.20   0.00   0.45    0.97    0.62    0.28    0.12    0.00    0.00    0.00    0.00      0      0      0       0       2 16.77
 2017 170   221    32    8.0      3   0.43    206     14      0    119    220    220      0    0.0  0.000      0      0  0.000  0.000  0.000  0.643  0.000  0.000  0.000   3.63   0.00   0.00      0      0    209.2   0.21   0.00   0.47    1.08    0.79    0.40    0.22    0.01    0.00    0.00    0.00      0      0      0       0       2 16.37
 2017 171   222    33    8.0      3   0.45    219     14      0    149    233    233      0    0.0  0.000      0      0  0.000  0.000  0.000  0.532  0.000  0.000  0.000   3.56   0.00   0.00      0      0    207.0   0.22   0.00   0.48    1.21    0.95    0.52    0.32    0.02    0.00    0.00    0.00      0      0      0       0       3 12.22
 2017 172   223    34    9.0      3   0.48    236     14      0    178    250    250      0    0.0  0.000      0      0  0.000  0.000  0.000  0.424  0.000  0.000  0.000   3.52   0.00   0.00      0      0    204.2   0.23   0.00   0.50    1.35    1.11    0.63    0.42    0.04    0.00    0.00    0.00      0      0      0       0       4 12.17
 2017 173   224    35    9.0      3   0.51    252     15      0    209    266    266      0    0.0  0.000      0      0  0.000  0.000  0.000  0.501  0.000  0.000  0.000   3.49   0.00   0.00      0      0    201.9   0.25   0.00   0.51    1.49    1.27    0.75    0.52    0.07    0.00    0.00    0.00      0      0      0       0       5 12.24
 2017 174   225    36    9.0      3   0.56    282     16      0    234    298    298      0    0.0  0.000      0      0  0.000  0.000  0.000  0.313  0.000  0.000  0.000   3.44   0.00   0.00      0      0    197.8   0.27   0.00   0.53    1.61    1.41    0.84    0.60    0.10    0.00    0.00    0.00      0      0      0       0       6 15.72
 2017 175   226    37    9.0      3   0.59    303     17      0    267    320    320      0    0.0  0.000      0      0  0.000  0.000  0.000  0.582  0.000  0.000  0.000   3.39   0.00   0.00      0      0    195.1   0.29   0.00   0.55    1.71    1.57    0.97    0.71    0.14    0.00    0.00    0.00      0      0      0       0       7 16.90
 2017 176   227    38   10.0      3   0.63    327     19      0    301    345    345      0    0.0  0.000      0      0  0.000  0.000  0.000  0.456  0.000  0.000  0.000   3.36   0.00   0.00      0      0    192.5   0.30   0.00   0.56    1.83    1.74    1.10    0.82    0.20    0.00    0.00    0.00      0      0      0       0       8 12.98
 2017 177   228    39   10.0      3   0.66    345     20      0    339    365    365      0    0.0  0.000      0      0  0.000  0.000  0.000  0.392  0.000  0.000  0.000   3.33   0.00   0.00      0      0    190.6   0.32   0.00   0.57    1.98    1.92    1.24    0.94    0.26    0.00    0.00    0.00      0      0      0       0      10  8.80
 2017 178   229    40   10.0      3   0.69    366     22      0    378    388    388      0    0.0  0.000      0      0  0.000  0.000  0.000  0.257  0.000  0.000  0.000   3.31   0.00   0.00      0      0    188.5   0.33   0.00   0.58    2.13    2.10    1.37    1.06    0.34    0.00    0.00    0.00      0      0      0       0      11  7.92
 2017 179   230    41   10.0      3   0.73    390     25      0    416    416    416      0    0.0  0.000      0      0  0.000  0.000  0.000  0.146  0.000  0.000  0.000   3.29   0.00   0.00      0      0    186.2   0.35   0.00   0.59    2.29    2.28    1.51    1.17    0.41    0.00    0.00    0.00      0      0      0       0      13  7.67
 2017 180   231    42   10.0      3   0.79    432     31      0    446    463    463      0    0.0  0.000      0      0  0.000  0.000  0.000  0.063  0.000  0.000  0.000   3.26   0.00   0.00      0      0    182.7   0.38   0.00   0.60    2.42    2.41    1.61    1.27    0.48    0.00    0.00    0.00      0      0      0       0      15 11.26
 2017 181   232    43   11.0      3   0.86    479     39      0    476    517    517      0    0.0  0.000      0      0  0.000  0.000  0.000  0.126  0.000  0.000  0.000   3.22   0.00   0.00      0      0    179.2   0.41   0.00   0.61    2.50    2.55    1.72    1.36    0.55    0.00    0.00    0.00      0      0      0       0      18 12.57
 2017 182   233    44   11.0      3   0.93    531     49      0    506    580    580      0    0.0  0.000      0      0  0.000  0.000  0.000  0.124  0.000  0.000  0.000   3.19   0.00   0.00      0      0    175.8   0.45   0.00   0.63    2.59    2.69    1.82    1.45    0.62    0.01    0.00    0.00      0      0      0       0      20 13.20
 2017 183   234    45   11.0      3   1.00    579     60      0    541    639    639      0    0.0  0.000      0      0  0.000  0.000  0.000  0.280  0.000  0.000  0.000   3.15   0.00   0.00      0      0    172.9   0.48   0.00   0.64    2.70    2.85    1.93    1.54    0.70    0.02    0.00    0.00      0      0      0       0      23 13.80
 2017 184   235    46   12.0      3   1.09    641     76      0    569    718    718      0    0.0  0.000      0      0  0.000  0.000  0.000  0.160  0.000  0.000  0.000   3.12   0.00   0.00      0      0    169.6   0.53   0.00   0.65    2.79    2.99    2.01    1.61    0.76    0.03    0.00    0.00      0      0      0       0      25 12.25
 2017 185   236    47   12.0      3   1.22    737    106      0    578    843    843      0    0.0  0.000      0      0  0.000  0.000  0.000  0.064  0.000  0.000  0.000   3.08   0.00   0.00      0      0    165.1   0.59   0.00   0.67    2.81    3.02    2.04    1.63    0.79    0.04    0.00    0.00      0      0      0       0      28 16.50
 2017 186   237    48   12.0      3   1.33    826    138      0    595    964    964      0    0.0  0.000      0      0  0.000  0.000  0.000  0.015  0.000  0.000  0.000   3.04   0.00   0.00      0      0    161.5   0.65   0.00   0.68    2.85    3.09    2.07    1.67    0.84    0.05    0.00    0.00      0      0      0       0      31 14.20
 2017 187   238    49   12.0      3   1.46    926    179      0    606   1105   1105      0    0.0  0.000      0      0  0.000  0.000  0.000  0.000  0.000  0.000  0.000   3.00   0.00   0.00      0      0    158.0   0.71   0.00   0.69    2.87    3.13    2.09    1.69    0.88    0.07    0.00    0.00      0      0      0       0      34 15.35
 2017 188   239    50   13.0      3   1.60   1031    228      0    616   1259   1259      0    0.0  0.000      0      0  0.000  0.000  0.000  0.000  0.000  0.000  0.000   2.94   0.00   0.00      0      0    154.7   0.77   0.00   0.71    2.86    3.13    2.08    1.71    0.93    0.10    0.00    0.00      0      0      0       0      37 15.75
 2017 189   240    51   13.0      3   1.73   1140    287      0    622   1427   1427      0    0.0  0.000      0      0  0.000  0.000  0.000  0.000  0.000  0.000  0.000   2.82   0.00   0.00      0      0    151.8   0.84   0.00   0.73    2.86    3.12    2.08    1.70    0.96    0.13    0.00    0.00      0      0      0       0      40 18.95
 2017 190   241    52   13.0      3   1.85   1238    345      0    638   1583   1583      0    0.0  0.000      0      0  0.000  0.000  0.000  0.014  0.000  0.000  0.000   2.72   0.00   0.00      0      0    149.4   0.89   0.00   0.74    2.86    3.13    2.08    1.70    1.01    0.21    0.00    0.00      0      0      0       0      43 14.25
 2017 191   242    53   14.0      3   1.95   1324    402      0    664   1726   1726      0    0.0  0.000      0      0  0.000  0.000  0.000  0.000  0.000  0.000  0.000   2.64   0.00   0.00      0      0    147.4   0.94   0.00   0.75    2.88    3.14    2.09    1.71    1.07    0.33    0.00    0.00      0      0      0       0      46 12.25
 2017 192   243    54   14.0      3   2.10   1453    459      0    671   1912   1912      0    0.0  0.000      0      0  0.000  0.000  0.000  0.000  0.000  0.000  0.000   2.51   0.00   0.00      0      0    144.7   1.02   0.00   0.77    2.88    3.14    2.09    1.71    1.08    0.38    0.00    0.00      0      0      0       0      50 15.60
 2017 193   244    55   14.0      3   2.21   1543    560      0    679   2104   2104      0    0.0  0.000      0      0  0.000  0.000  0.000  0.000  0.000  0.000  0.000   2.38   0.00   0.00      0      0    143.0   1.07   0.00   0.78    2.88    3.14    2.09    1.71    1.07    0.43    0.00    0.00      0      0      0       0      53 15.85
 2017 194   245    56   15.0      3   2.27   1619    675      0    686   2294   2294      0    0.0  0.000      0      0  0.000  0.000  0.024  0.204  0.000  0.000  0.000   2.25   0.00   0.00      0      0    140.4   1.10   0.00   0.80    2.88    3.14    2.09    1.70    1.07    0.48    0.00    0.00      0      0      0       0      56 15.85
 2017 195   246    57   15.0      3   2.30   1683    789      0    697   2472   2475      0    0.0  0.000      3      0  0.000  0.000  0.047  0.475  0.000  0.000  0.000   2.16   0.00   0.00      0      3    136.9   1.11   0.00   0.81    2.88    3.14    2.09    1.71    1.07    0.54    0.00    0.00      0      0      0       0      60 16.80
 2017 196   247    58   15.0      3   2.30   1735    890      0    717   2625   2633      0    0.0  0.000      8      0  0.000  0.000  0.067  0.416  0.000  0.000  0.000   2.08   0.00   0.00      0      8    132.8   1.11   0.00   0.83    2.91    3.16    2.10    1.72    1.08    0.65    0.00    0.00      0      0      0       0      63 13.65
 2017 197   248    59   15.0      3   2.27   1772    966      0    755   2738   2751      0    0.0  0.000     13      0  0.000  0.000  0.086  0.337  0.000  0.000  0.000   2.03   0.00   0.00      0     13    128.1   1.11   0.00   0.83    2.97    3.22    2.14    1.75    1.10    0.82    0.00    0.00      0      0      0       0      67  9.20
 2017 198   249    60   16.0      3   2.24   1817   1067      0    773   2885   2905      0    0.0  0.000     20      0  0.000  0.000  0.097  0.455  0.000  0.000  0.000   1.97   0.00   0.01      0     20    123.1   1.11   0.00   0.85    2.99    3.25    2.16    1.76    1.11    0.90    0.00    0.00      0      0      0       0      71 14.95
 2017 199   250    61   16.0      3   2.19   1852   1147      0    805   2999   3027      0    0.0  0.000     28      0  0.000  0.000  0.102  0.383  0.000  0.000  0.000   1.92   0.00   0.01      0     28    118.1   1.11   0.00   0.86    3.06    3.32    2.20    1.79    1.12    1.03    0.00    0.00      0      0      0       0      75 10.70
 2017 200   251    62   16.0      3   2.14   1895   1250      0    817   3145   3183      0    0.0  0.000     38      0  0.000  0.000  0.112  0.306  0.000  0.000  0.000   1.86   0.00   0.01      0     38    113.0   1.11   0.00   0.87    3.09    3.35    2.22    1.80    1.13    1.07    0.00    0.00      0      0      0       0      79 12.25
 2017 201   252    63   17.0      3   2.09   1939   1363      0    823   3302   3351      0    0.0  0.000     49      0  0.000  0.000  0.116  0.229  0.000  0.000  0.000   1.79   0.00   0.01      0     49    108.0   1.11   0.00   0.89    3.11    3.36    2.23    1.81    1.14    1.09    0.00    0.00      0      0      0       0      83 16.95
 2017 202   253    64   17.0      3   2.04   1980   1470      0    828   3450   3516      0    0.0  0.000     65      0  0.000  0.000  0.122  0.425  0.000  0.000  0.000   1.74   0.00   0.02      0     65    103.1   1.11   0.00   0.90    3.13    3.38    2.25    1.82    1.14    1.10    0.00    0.00      0      0      0       0      87 17.90
 2017 203   254    65   17.0      3   1.98   2019   1569      0    833   3588   3676      0    0.0  0.000     88      0  0.000  0.000  0.130  0.446  0.000  0.000  0.000   1.69   0.00   0.02      0     88     98.2   1.11   0.00   0.91    3.15    3.39    2.26    1.83    1.14    1.10    0.01    0.00      0      0      0       0      91 17.65
 2017 204   255    66   18.0      3   1.90   2040   1611      0    868   3652   3770      0    0.0  0.000    118      0  0.000  0.000  0.137  0.667  0.000  0.000  0.000   1.67   0.00   0.03      0    118     93.3   1.11   0.00   0.93    3.27    3.51    2.33    1.88    1.18    1.12    0.07    0.00      0      0      0       0      95 16.45
 2017 205   256    67   18.0      3   1.83   2068   1665      0    888   3734   3891      0    0.0  0.000    157      0  0.000  0.000  0.143  0.608  0.000  0.000  0.000   1.66   0.00   0.04      0    157     88.5   1.11   0.00   0.94    3.32    3.56    2.37    1.91    1.20    1.13    0.12    0.00      0      0      0       0      99 17.80
 2017 206   257    68   18.0      3   1.77   2102   1729      0    894   3831   4036      0    0.0  0.000    205      0  0.000  0.000  0.139  0.493  0.000  0.000  0.000   1.65   0.00   0.05      0    205     84.1   1.11   0.00   0.95    3.33    3.57    2.38    1.91    1.20    1.13    0.15    0.00      0      0      0       0     104 16.55
 2017 207   258    69   18.0      3   1.71   2129   1764      0    912   3894   4153      0    0.0  0.000    259      0  0.000  0.000  0.137  0.384  0.000  0.000  0.000   1.65   0.00   0.06      0    259     80.1   1.11   0.00   0.96    3.38    3.62    2.40    1.93    1.21    1.14    0.21    0.00      0      0      0       0     108 10.95
 2017 208   259    70   18.0      3   1.65   2163   1817      0    916   3979   4296      0    0.0  0.000    317      0  0.000  0.000  0.136  0.274  0.000  0.000  0.000   1.65   0.00   0.07      0    317     76.4   1.11   0.00   0.97    3.38    3.62    2.41    1.93    1.21    1.14    0.23    0.00      0      0      0       0     113 13.35
 2017 209   260    71   18.0      3   1.60   2193   1844      0    926   4036   4424      0    0.0  0.000    388      0  0.000  0.000  0.131  0.550  0.000  0.000  0.000   1.65   0.00   0.09      0    388     73.1   1.11   0.00   0.98    3.40    3.64    2.42    1.94    1.22    1.14    0.27    0.00      0      0      0       0     117 16.40
 2017 210   261    72   18.0      3   1.56   2224   1867      0    932   4091   4556      0    0.0  0.000    466      0  0.000  0.000  0.129  0.443  0.000  0.000  0.000   1.66   0.00   0.10      0    466     70.0   1.11   0.00   0.99    3.41    3.64    2.42    1.95    1.22    1.14    0.30    0.00      0      0      0       0     122 13.70
 2017 211   262    73   18.0      3   1.52   2255   1887      0    936   4142   4691      0    0.0  0.000    549      0  0.000  0.000  0.125  0.346  0.000  0.000  0.000   1.66   0.00   0.12      0    549     67.2   1.11   0.00   1.00    3.41    3.65    2.42    1.95    1.22    1.14    0.32    0.00      0      0      0       0     127 11.85
 2017 212   263    74   18.0      4   1.45   2229   1964      0    938   4193   4804      0    0.0  0.000    611      0  0.000  0.000  0.121  0.257  0.000  0.000  0.000   1.66   0.00   0.13      0    611     64.9   1.11   0.00   1.01    3.41    3.64    2.42    1.94    1.22    1.14    0.34    0.00      0      0      0       0     131 10.90
 2017 213   264    75   18.0      4   1.38   2202   2034      0    939   4235   4912      0    0.0  0.000    676      0  0.000  0.000  0.114  0.169  0.000  0.000  0.000   1.67   0.00   0.14      0    676     62.9   1.11   0.00   1.02    3.41    3.64    2.42    1.94    1.22    1.13    0.35    0.00      0      0      0       0     136 13.40
 2017 214   265    76   18.0      4   1.33   2172   2097      0    940   4269   5015      0    0.0  0.000    747      0  0.000  0.000  0.107  0.100  0.000  0.000  0.000   1.68   0.00   0.15      0    747     61.2   1.11   0.00   1.03    3.40    3.64    2.42    1.94    1.21    1.13    0.37    0.00      0      0      0       0     141 14.40
 2017 215   266    77   18.0      4   1.28   2141   2153      0    941   4293   5114      0    0.0  0.000    820      0  0.000  0.000  0.100  0.031  0.000  0.000  0.000   1.68   0.00   0.16      0    820     59.8   1.11   0.00   1.04    3.40    3.63    2.41    1.93    1.21    1.13    0.38    0.00      0      0      0       0     146 15.20
 2017 216   267    78   18.0      4   1.24   2107   2203      0    942   4310   5208      0    0.0  0.000    898      0  0.000  0.000  0.092  0.005  0.000  0.000  0.000   1.69   0.00   0.17      0    898     58.6   1.11   0.00   1.05    3.40    3.63    2.41    1.93    1.21    1.12    0.39    0.00      0      0      0       0     150 15.30
 2017 217   268    79   18.0      4   1.20   2072   2249      0    943   4321   5298      0    0.0  0.000    977      0  0.000  0.000  0.084  0.000  0.000  0.000  0.000   1.70   0.00   0.18      0    977     57.7   1.11   0.00   1.06    3.40    3.62    2.41    1.93    1.21    1.12    0.40    0.00      0      0      0       0     155 12.45
 2017 218   269    80   18.0      4   1.16   2037   2291      0    943   4327   5386      0    0.0  0.000   1058      0  0.000  0.000  0.077  0.000  0.000  0.000  0.000   1.72   0.00   0.20      0   1058     57.1   1.11   0.00   1.06    3.39    3.62    2.41    1.92    1.21    1.12    0.41    0.00      0      0      0       0     160  8.80
 2017 219   270    81   18.0      4   1.13   1999   2329      0    944   4328   5470      0    0.0  0.000   1142      0  0.000  0.000  0.068  0.000  0.000  0.000  0.000   1.73   0.00   0.21      0   1142     56.6   1.11   0.00   1.07    3.39    3.62    2.40    1.92    1.20    1.12    0.42    0.00      0      0      0       0     164 12.35
 2017 220   271    82   18.0      4   1.11   1960   2363      0    944   4323   5550      0    0.0  0.000   1227      0  0.000  0.000  0.060  0.000  0.000  0.000  0.000   1.75   0.00   0.22      0   1227     56.5   1.11   0.00   1.08    3.39    3.62    2.40    1.92    1.20    1.11    0.43    0.00      0      0      0       0     169 10.45
 2017 221   272    83   18.0      4   1.09   1920   2394      0    945   4314   5629      0    0.0  0.000   1314      0  0.000  0.000  0.051  0.000  0.000  0.000  0.000   1.76   0.00   0.23      0   1314     56.5   1.11   0.00   1.09    3.39    3.61    2.40    1.92    1.20    1.11    0.44    0.00      0      0      0       0     174  9.35
 2017 222   273    84   18.0      4   1.07   1879   2422      0    945   4300   5705      0    0.0  0.000   1404      0  0.000  0.000  0.041  0.000  0.000  0.000  0.000   1.78   0.00   0.25      0   1404     56.9   1.11   0.00   1.09    3.39    3.61    2.40    1.92    1.20    1.11    0.44    0.00      0      0      0       0     179 10.45
 2017 223   274    85   18.0      4   1.06   1836   2446      0    945   4282   5779      0    0.0  0.000   1497      0  0.000  0.000  0.030  0.000  0.000  0.000  0.000   1.80   0.00   0.26      0   1497     57.6   1.11   0.00   1.10    3.39    3.61    2.40    1.92    1.20    1.11    0.45    0.00      0      0      0       0     183 11.60
 2017 224   275    86   18.0      4   1.05   1792   2466      0    946   4258   5852      0    0.0  0.000   1594      0  0.000  0.000  0.017  0.000  0.000  0.000  0.000   1.82   0.00   0.27      0   1594     58.6   1.11   0.00   1.11    3.39    3.61    2.40    1.91    1.20    1.11    0.45    0.00      0      0      0       0     188 13.50
 2017 225   276    87   18.0      4   1.05   1746   2484      0    946   4230   5924      0    0.0  0.000   1694      0  0.000  0.000  0.006  0.000  0.000  0.000  0.000   1.84   0.00   0.29      0   1694     60.0   1.11   0.00   1.12    3.39    3.61    2.40    1.91    1.20    1.10    0.45    0.00      0      0      0       0     193  9.40
 2017 226   277    88   18.0      5   1.05   1746   2484    111    946   4230   6035   1308    8.5  0.018   1806      7  0.000  0.000  0.000  0.000  0.000  0.000  0.000   1.80   6.16   0.30      0   1806     60.0   1.11   0.00   1.12    3.39    3.61    2.40    1.91    1.20    1.10    0.45    0.00      0      0      0       0     197  9.55
 2017 227   278    89   18.0      5   1.05   1746   2484    222    945   4230   6147   1308   17.0  0.036   1917      7  0.000  0.000  0.001  0.000  0.000  0.000  0.000   1.77  11.60   0.31      0   1917     60.0   1.11   0.00   1.13    3.39    3.61    2.39    1.91    1.19    1.10    0.45    0.00      0      0      0       0     202 10.80
 2017 228   279    90   18.0      5   1.05   1746   2484    334    944   4230   6258   1308   25.5  0.053   2028      7  0.000  0.000  0.003  0.000  0.000  0.000  0.000   1.73  16.45   0.32      0   2028     59.9   1.11   0.00   1.14    3.39    3.60    2.39    1.91    1.19    1.10    0.45    0.00      0      0      0       0     207 13.95
 2017 229   280    91   18.0      5   1.04   1746   2484    445    942   4230   6369   1308   34.0  0.070   2139      7  0.000  0.000  0.005  0.000  0.000  0.000  0.000   1.70  20.79   0.34      0   2139     59.8   1.11   0.00   1.15    3.38    3.60    2.39    1.91    1.19    1.09    0.45    0.00      0      0      0       0     212 14.15
 2017 230   281    92   18.0      5   1.04   1746   2484    556    941   4230   6480   1308   42.5  0.086   2250      7  0.000  0.000  0.006  0.000  0.000  0.000  0.000   1.66  24.71   0.35      0   2250     59.6   1.11   0.00   1.16    3.38    3.59    2.39    1.90    1.19    1.09    0.45    0.00      0      0      0       0     216 17.05
 2017 231   282    93   18.0      5   1.04   1746   2484    667    939   4230   6591   1308   51.0  0.101   2362      7  0.000  0.000  0.009  0.000  0.000  0.000  0.000   1.63  28.25   0.36      0   2362     59.4   1.11   0.00   1.17    3.38    3.59    2.38    1.90    1.18    1.09    0.45    0.00      0      0      0       0     221 13.95
 2017 232   283    94   18.0      5   1.03   1746   2484    778    937   4230   6703   1308   59.5  0.116   2473      7  0.000  0.000  0.014  0.120  0.000  0.000  0.000   1.59  31.48   0.37      0   2473     59.1   1.11   0.00   1.18    3.37    3.58    2.38    1.89    1.18    1.08    0.45    0.00      0      0      0       0     226 12.25
 2017 233   284    95   18.0      5   1.02   1746   2484    890    934   4230   6814   1308   68.0  0.131   2584      7  0.000  0.000  0.019  0.074  0.000  0.000  0.000   1.55  34.43   0.38      0   2584     58.7   1.11   0.00   1.19    3.36    3.57    2.37    1.89    1.18    1.08    0.44    0.00      0      0      0       0     230 13.10
 2017 234   285    96   18.0      5   1.02   1746   2484   1001    931   4230   6925   1308   76.5  0.145   2695      7  0.000  0.000  0.022  0.234  0.000  0.000  0.000   1.51  37.13   0.39      0   2695     58.2   1.11   0.00   1.20    3.35    3.56    2.36    1.88    1.17    1.07    0.44    0.00      0      0      0       0     235 15.75
 2017 235   286    97   18.0      5   1.01   1746   2484   1112    927   4230   7036   1308   85.0  0.158   2806      7  0.000  0.000  0.026  0.243  0.000  0.000  0.000   1.48  39.62   0.40      0   2806     57.7   1.11   0.00   1.21    3.33    3.54    2.35    1.87    1.17    1.07    0.44    0.00      0      0      0       0     240 15.35
 2017 236   287    98   18.0      5   0.99   1746   2484   1223    924   4230   7147   1308   93.5  0.171   2917      7  0.000  0.000  0.033  0.198  0.000  0.000  0.000   1.44  41.92   0.41      0   2917     56.9   1.11   0.00   1.22    3.32    3.53    2.34    1.86    1.16    1.06    0.44    0.00      0      0      0       0     244 10.45
 2017 237   288    99   18.0      5   0.98   1746   2483   1334    919   4230   7258   1308  102.0  0.184   3029      7  0.000  0.000  0.041  0.154  0.000  0.000  0.000   1.40  44.06   0.42      0   3029     56.1   1.11   0.00   1.22    3.32    3.53    2.34    1.86    1.16    1.06    0.44    0.00      0      0      0       0     249  9.75
 2017 238   289   100   18.0      5   0.96   1746   2481   1444    914   4227   7366   1308  110.4  0.196   3139      7  0.000  0.000  0.050  0.111  0.000  0.000  0.000   1.37  46.02   0.43      0   3139     55.0   1.11   0.00   1.22    3.32    3.53    2.34    1.86    1.16    1.06    0.44    0.00      0      0      0       0     254  7.90
 2017 239   290   101   18.0      5   0.94   1746   2474   1556    910   4220   7470   1308  118.9  0.208   3250      7  0.000  0.000  0.057  0.072  0.000  0.000  0.000   1.34  47.86   0.44      0   3250     53.8   1.11   0.00   1.22    3.32    3.53    2.34    1.86    1.16    1.06    0.44    0.00      0      0      0       0     258  9.20
 2017 240   291   102   18.0      5   0.92   1746   2465   1667    905   4211   7573   1308  127.4  0.220   3361      7  0.000  0.000  0.064  0.051  0.000  0.000  0.000   1.31  49.59   0.44      0   3361     52.5   1.11   0.00   1.22    3.32    3.53    2.34    1.86    1.16    1.06    0.44    0.00      0      0      0       0     263 10.75
 2017 241   292   103   18.0      5   0.89   1746   2453   1778    901   4199   7671   1308  135.9  0.232   3472      7  0.000  0.000  0.071  0.166  0.000  0.000  0.000   1.28  51.20   0.45      0   3472     51.2   1.11   0.00   1.22    3.32    3.53    2.34    1.86    1.16    1.06    0.44    0.00      0      0      0       0     267 11.50
 2017 242   293   104   18.0      5   0.87   1746   2437   1889    896   4183   7767   1308  144.4  0.243   3584      7  0.000  0.000  0.077  0.240  0.000  0.000  0.000   1.25  52.72   0.46      0   3584     49.7   1.11   0.00   1.22    3.32    3.53    2.34    1.86    1.16    1.06    0.44    0.00      0      0      0       0     272 11.05
 2017 243   294   105   18.0      5   0.84   1746   2418   2000    892   4165   7859   1308  152.9  0.255   3695      7  0.000  0.000  0.083  0.194  0.000  0.000  0.000   1.22  54.14   0.47      0   3695     48.1   1.11   0.00   1.22    3.32    3.53    2.34    1.86    1.16    1.06    0.44    0.00      0      0      0       0     276 10.70
 2017 244   295   106   18.0      5   0.81   1746   2396   2112    887   4142   7948   1308  161.4  0.266   3806      7  0.000  0.000  0.089  0.165  0.000  0.000  0.000   1.19  55.48   0.48      0   3806     46.5   1.11   0.00   1.22    3.32    3.53    2.34    1.86    1.16    1.06    0.44    0.00      0      0      0       0     281 12.55
 2017 245   296   107   18.0      5   0.78   1746   2373   2221    883   4119   8034   1308  169.8  0.276   3915      7  0.000  0.000  0.097  0.121  0.000  0.000  0.000   1.16  56.72   0.49      0   3915     44.8   1.11   0.00   1.22    3.32    3.53    2.34    1.86    1.16    1.06    0.44    0.00      0      0      0       0     285  7.80
 2017 246   297   108   18.0      5   0.75   1746   2365   2310    878   4111   8115   1308  176.6  0.285   4004      7  0.000  0.000  0.105  0.078  0.000  0.000  0.000   1.14  57.68   0.49      0   4004     43.1   1.11   0.00   1.22    3.32    3.53    2.34    1.86    1.16    1.06    0.44    0.00      0      0      0       0     290  5.98
 2017 247   298   109   18.0      5   0.72   1746   2333   2421    874   4079   8194   1308  185.1  0.295   4115      7  0.000  0.000  0.108  0.051  0.000  0.000  0.000   1.12  58.83   0.50      0   4115     41.3   1.11   0.00   1.22    3.32    3.53    2.34    1.86    1.16    1.06    0.44    0.00      0      0      0       0     294  9.10
 2017 248   299   110   18.0      5   0.69   1746   2297   2532    870   4043   8269   1308  193.6  0.306   4226      7  0.000  0.000  0.114  0.025  0.000  0.000  0.000   1.10  59.91   0.51      0   4226     39.6   1.11   0.00   1.22    3.32    3.53    2.34    1.86    1.16    1.06    0.44    0.00      0      0      0       0     298 14.10
 2017 249   300   111   18.0      5   0.66   1746   2257   2643    865   4003   8340   1308  202.1  0.317   4338      7  0.000  0.000  0.119  0.000  0.000  0.000  0.000   1.08  60.94   0.52      0   4338     37.8   1.11   0.00   1.22    3.32    3.53    2.34    1.86    1.16    1.06    0.44    0.00      0      0      0       0     303  9.85
 2017 250   301   112   18.0      5   0.63   1746   2243   2724    861   3989   8408   1308  208.2  0.324   4419      7  0.000  0.000  0.125  0.000  0.000  0.000  0.000   1.06  61.65   0.53      0   4419     36.0   1.11   0.00   1.22    3.32    3.53    2.34    1.86    1.16    1.06    0.44    0.00      0      0      0       0     307  5.27
 2017 251   302   113   18.0      5   0.60   1746   2228   2804    857   3974   8472   1308  214.4  0.331   4498      7  0.000  0.000  0.127  0.000  0.000  0.000  0.000   1.05  62.33   0.53      0   4498     34.3   1.11   0.00   1.22    3.32    3.53    2.34    1.86    1.16    1.06    0.44    0.00      0      0      0       0     311  5.05
 2017 252   303   114   18.0      5   0.57   1746   2184   2909    852   3931   8534   1308  222.4  0.341   4603      7  0.000  0.000  0.132  0.000  0.000  0.000  0.000   1.03  63.19   0.54      0   4603     32.6   1.11   0.00   1.22    3.32    3.53    2.34    1.86    1.16    1.06    0.44    0.00      0      0      0       0     316  7.40
 2017 253   304   115   18.0      5   0.54   1746   2131   3020    848   3877   8592   1308  230.9  0.352   4715      7  0.000  0.000  0.139  0.000  0.000  0.000  0.000   1.01  64.06   0.55      0   4715     30.9   1.11   0.00   1.22    3.32    3.53    2.34    1.86    1.16    1.06    0.44    0.00      0      0      0       0     320  8.75
 2017 254   305   116   18.0      5   0.51   1746   2088   3118    844   3834   8646   1308  238.3  0.361   4812      7  0.000  0.000  0.145  0.000  0.000  0.000  0.000   1.00  64.79   0.56      0   4812     29.2   1.11   0.00   1.22    3.32    3.53    2.34    1.86    1.16    1.06    0.44    0.00      0      0      0       0     324  6.78
 2017 255   306   117   18.0      5   0.48   1746   2042   3216    840   3788   8698   1308  245.8  0.370   4910      7  0.000  0.000  0.148  0.000  0.000  0.000  0.000   0.98  65.49   0.56      0   4910     27.6   1.11   0.00   1.22    3.32    3.53    2.34    1.86    1.16    1.06    0.44    0.00      0      0      0       0     328  6.75
 2017 256   307   118   18.0      5   0.45   1746   1979   3327    835   3725   8746   1308  254.3  0.380   5021      7  0.000  0.000  0.151  0.000  0.000  0.000  0.000   0.97  66.25   0.57      0   5021     26.0   1.11   0.00   1.22    3.32    3.53    2.34    1.86    1.16    1.06    0.44    0.00      0      0      0       0     332  8.00
 2017 257   308   119   18.0      5   0.43   1746   1913   3438    831   3659   8792   1308  262.8  0.391   5132      7  0.000  0.000  0.156  0.000  0.000  0.000  0.000   0.96  66.99   0.58      0   5132     24.5   1.11   0.00   1.22    3.32    3.53    2.34    1.86    1.16    1.06    0.44    0.00      0      0      0       0     337  9.15
 2017 258   309   120   18.0      5   0.40   1746   1845   3549    827   3591   8834   1308  271.3  0.402   5243      7  0.000  0.000  0.158  0.000  0.000  0.000  0.000   0.94  67.69   0.59      0   5243     23.1   1.11   0.00   1.22    3.32    3.53    2.34    1.86    1.16    1.06    0.44    0.00      0      0      0       0     341 10.20
 2017 259   310   121   18.0      5   0.38   1746   1774   3660    823   3520   8875   1308  279.8  0.412   5355      7  0.000  0.000  0.160  0.000  0.000  0.000  0.000   0.93  68.36   0.60      0   5355     21.7   1.11   0.00   1.22    3.32    3.53    2.34    1.86    1.16    1.06    0.44    0.00      0      0      0       0     345 11.50
 2017 260   311   122   18.0      5   0.36   1746   1709   3771    819   3455   8921   1308  288.3  0.423   5466      7  0.000  0.000  0.162  0.000  0.000  0.000  0.000   0.91  69.00   0.61      0   5466     20.4   1.11   0.00   1.22    3.32    3.53    2.34    1.86    1.16    1.06    0.44    0.00      0      0      0       0     349 14.10
 2017 261   312   123   18.0      5   0.33   1746   1641   3883    815   3387   8964   1308  296.8  0.433   5577      7  0.000  0.000  0.163  0.000  0.000  0.000  0.000   0.90  69.62   0.62      0   5577     19.1   1.11   0.00   1.22    3.32    3.53    2.34    1.86    1.16    1.06    0.44    0.00      0      0      0       0     353 15.60
 2017 262   313   124   18.0      5   0.31   1746   1604   3916    811   3350   8960   1308  299.3  0.437   5610      7  0.000  0.000  0.168  0.000  0.000  0.000  0.000   0.90  69.80   0.63      0   5610     17.9   1.11   0.00   1.22    3.32    3.53    2.34    1.86    1.16    1.06    0.44    0.00      0      0      0       0     357 10.45
 2017 263   314   125   18.0      5   0.29   1746   1604   3947    807   3350   8991   1308  301.7  0.439   5641      7  0.000  0.000  0.157  0.000  0.000  0.000  0.000   0.89  69.96   0.63      0   5641     16.9   1.11   0.00   1.22    3.32    3.53    2.34    1.86    1.16    1.06    0.44    0.00      0      0      0       0     361 13.25
 2017 264   315   126   18.0      5   0.28   1746   1604   3976    803   3350   9020   1308  304.0  0.441   5671      7  0.000  0.000  0.148  0.000  0.000  0.000  0.000   0.89  70.12   0.63      0   5671     15.9   1.11   0.00   1.22    3.32    3.53    2.34    1.86    1.16    1.06    0.44    0.00      0      0      0       0     365 13.60
 2017 265   316   127   18.0      5   0.26   1746   1604   4004    799   3350   9048   1308  306.1  0.443   5698      7  0.000  0.000  0.143  0.000  0.000  0.000  0.000   0.88  70.27   0.63      0   5698     15.1   1.11   0.00   1.22    3.32    3.53    2.34    1.86    1.16    1.06    0.44    0.00      0      0      0       0     369 18.70
 2017 266   317   128   18.0      5   0.25   1746   1604   4030    795   3350   9075   1308  308.1  0.444   5725      7  0.000  0.000  0.138  0.000  0.000  0.000  0.000   0.87  70.40   0.63      0   5725     14.3   1.11   0.00   1.22    3.32    3.53    2.34    1.86    1.16    1.06    0.44    0.00      0      0      0       0     373 18.20
 2017 267   318   129   18.0      5   0.24   1746   1604   4055    791   3350   9099   1308  310.0  0.446   5750      7  0.000  0.000  0.133  0.000  0.000  0.000  0.000   0.87  70.53   0.63      0   5750     13.6   1.11   0.00   1.22    3.32    3.53    2.34    1.86    1.16    1.06    0.44    0.00      0      0      0       0     377 18.25
 2017 268   319   130   18.0      5   0.23   1746   1604   4079    787   3350   9123   1308  311.8  0.447   5774      7  0.000  0.000  0.127  0.000  0.000  0.000  0.000   0.86  70.65   0.63      0   5774     12.9   1.11   0.00   1.22    3.32    3.53    2.34    1.86    1.16    1.06    0.44    0.00      0      0      0       0     381 17.75
 2017 269   320   131   18.0      5   0.22   1746   1604   4102    783   3350   9146   1308  313.6  0.448   5796      7  0.000  0.000  0.121  0.000  0.000  0.000  0.000   0.86  70.77   0.63      0   5796     12.4   1.11   0.00   1.22    3.32    3.53    2.34    1.86    1.16    1.06    0.44    0.00      0      0      0       0     385 16.45
 2017 270   321   132   18.0      5   0.21   1746   1604   4124    779   3350   9168   1308  315.2  0.450   5818      7  0.000  0.000  0.114  0.000  0.000  0.000  0.000   0.85  70.88   0.63      0   5818     11.8   1.11   0.00   1.22    3.32    3.53    2.34    1.86    1.16    1.06    0.44    0.00      0      0      0       0     389 17.10
 2017 271   322   133   18.0      5   0.20   1746   1604   4144    775   3350   9189   1308  316.8  0.451   5839      7  0.000  0.000  0.109  0.000  0.000  0.000  0.000   0.85  70.98   0.64      0   5839     11.3   1.11   0.00   1.22    3.32    3.53    2.34    1.86    1.16    1.06    0.44    0.00      0      0      0       0     393 14.75
 2017 272   323   134   18.0      5   0.19   1746   1604   4164    771   3350   9208   1308  318.3  0.452   5858      7  0.000  0.000  0.109  0.000  0.000  0.000  0.000   0.85  71.08   0.64      0   5858     10.9   1.11   0.00   1.22    3.32    3.53    2.34    1.86    1.16    1.06    0.44    0.00      0      0      0       0     397  5.93
 2017 273   324   135   18.0      5   0.18   1746   1604   4183    767   3350   9227   1308  319.8  0.453   5877      7  0.000  0.000  0.106  0.000  0.000  0.000  0.000   0.84  71.17   0.64      0   5877     10.4   1.11   0.00   1.22    3.32    3.53    2.34    1.86    1.16    1.06    0.44    0.00      0      0      0       0     401  8.65
 2017 274   325   136   18.0      5   0.18   1746   1604   4201    763   3350   9245   1308  321.1  0.454   5895      7  0.000  0.000  0.107  0.000  0.000  0.000  0.000   0.84  71.26   0.64      0   5895     10.0   1.11   0.00   1.22    3.32    3.53    2.34    1.86    1.16    1.06    0.44    0.00      0      0      0       0     405  5.47
 2017 275   326   137   18.0      5   0.17   1746   1604   4218    760   3350   9262   1308  322.4  0.455   5912      7  0.000  0.000  0.107  0.000  0.000  0.000  0.000   0.83  71.34   0.64      0   5912      9.6   1.11   0.00   1.22    3.32    3.53    2.34    1.86    1.16    1.06    0.44    0.00      0      0      0       0     408  5.78
 2017 276   327   138   18.0      5   0.17   1746   1604   4218    760   3350   9262   1308  322.4  0.455   5912      7  0.000  0.000  0.105  0.000  0.000  0.000  0.000   0.83  71.34   0.64      0   5912      9.6   1.11   0.00   1.22    3.32    3.53    2.34    1.86    1.16    1.06    0.44    0.00      0      0      0       0     408  9.30
 2017 277   328   139   18.0      5   0.17   1746   1604   4218    760   3350   9262   1308  322.4  0.455   5912      7  0.000  0.000  0.105  0.000  0.000  0.000  0.000   0.83  71.34   0.64      0   5912      9.6   1.11   0.00   1.22    3.32    3.53    2.34    1.86    1.16    1.06    0.44    0.00      0      0      0       0     408 14.55
 2017 278   329   140   18.0      5   0.17   1746   1604   4218    760   3350   9262   1308  322.4  0.455   5912      7  0.000  0.000  0.105  0.000  0.000  0.000  0.000   0.83  71.34   0.64      0   5912      9.6   1.11   0.00   1.22    3.32    3.53    2.34    1.86    1.16    1.06    0.44    0.00      0      0      0       0     408 13.00
 2017 279   330   141   18.0      5   0.17   1746   1604   4218    760   3350   9262   1308  322.4  0.455   5912      7  0.000  0.000  0.105  0.000  0.000  0.000  0.000   0.83  71.34   0.64      0   5912      9.6   1.11   0.00   1.22    3.32    3.53    2.34    1.86    1.16    1.06    0.44    0.00      0      0      0       0     408  9.35
 2017 280   331   142   18.0      5   0.17   1746   1604   4218    760   3350   9262   1308  322.4  0.455   5912      7  0.000  0.000  0.105  0.000  0.000  0.000  0.000   0.83  71.34   0.64      0   5912      9.6   1.11   0.00   1.22    3.32    3.53    2.34    1.86    1.16    1.06    0.44    0.00      0      0      0       0     408  0.00
 2017 281   332   143   18.0      5   0.17   1746   1604   4218    760   3350   9262   1308  322.4  0.455   5912      7  0.000  0.000  0.105  0.000  0.000  0.000  0.000   0.83  71.34   0.64      0   5912      9.6   1.11   0.00   1.22    3.32    3.53    2.34    1.86    1.16    1.06    0.44    0.00      0      0      0       0     408  9.95
 2017 282   333   144   18.0      5   0.17   1746   1604   4218    760   3350   9262   1308  322.4  0.455   5912      7  0.000  0.000  0.105  0.000  0.000  0.000  0.000   0.83  71.34   0.64      0   5912      9.6   1.11   0.00   1.22    3.32    3.53    2.34    1.86    1.16    1.06    0.44    0.00      0      0      0       0     408  8.35
 2017 283   334   145   18.0      5   0.17   1746   1604   4218    760   3350   9262   1308  322.4  0.455   5912      7  0.000  0.000  0.105  0.000  0.000  0.000  0.000   0.83  71.34   0.64      0   5912      9.6   1.11   0.00   1.22    3.32    3.53    2.34    1.86    1.16    1.06    0.44    0.00      0      0      0       0     408  9.95
 2017 284   335   146   18.0      5   0.17   1746   1604   4218    760   3350   9262   1308  322.4  0.455   5912      7  0.000  0.000  0.105  0.000  0.000  0.000  0.000   0.83  71.34   0.64      0   5912      9.6   1.11   0.00   1.22    3.32    3.53    2.34    1.86    1.16    1.06    0.44    0.00      0      0      0       0     408 11.55
 2017 285   336   147   18.0      5   0.17   1746   1604   4218    760   3350   9262   1308  322.4  0.455   5912      7  0.000  0.000  0.105  0.000  0.000  0.000  0.000   0.83  71.34   0.64      0   5912      9.6   1.11   0.00   1.22    3.32    3.53    2.34    1.86    1.16    1.06    0.44    0.00      0      0      0       0     408  6.40
 2017 286   337   148   18.0      5   0.17   1746   1604   4218    760   3350   9262   1308  322.4  0.455   5912      7  0.000  0.000  0.105  0.000  0.000  0.000  0.000   0.83  71.34   0.64      0   5912      9.6   1.11   0.00   1.22    3.32    3.53    2.34    1.86    1.16    1.06    0.44    0.00      0      0      0       0     408  5.55
 2017 287   338   149   18.0      5   0.17   1746   1604   4218    760   3350   9262   1308  322.4  0.455   5912      7  0.000  0.000  0.105  0.000  0.000  0.000  0.000   0.83  71.34   0.64      0   5912      9.6   1.11   0.00   1.22    3.32    3.53    2.34    1.86    1.16    1.06    0.44    0.00      0      0      0       0     408  4.85
 2017 288   339   150   18.0      5   0.17   1746   1604   4218    760   3350   9262   1308  322.4  0.455   5912      7  0.000  0.000  0.105  0.000  0.000  0.000  0.000   0.83  71.34   0.64      0   5912      9.6   1.11   0.00   1.22    3.32    3.53    2.34    1.86    1.16    1.06    0.44    0.00      0      0      0       0     408  8.15
