*PLANT N OUTPUT FILE

*DSSAT Cropping System Model Ver. 4.6.1.000 -release      APR 22, 2019; 09:45:14
                                                                                
*RUN   1        : Sim1                      MZCER046 UINT1601    1              
 MODEL          : MZCER046 - Maize                                              
 EXPERIMENT     : UINT1601 MZ N TRACK                                           
 DATA PATH      :                                                               
 TREATMENT  1   : Sim1                      MZCER046                            
  
@YEAR DOY   DAS   DAP   CNAD   GNAD   VNAD   GN%D   VN%D   NUPC   LNAD   SNAD   LN%D   SN%D   RN%D   SNN0C   SNN1C
 2017 138   189     0    0.0    0.0    0.0   0.00   0.00    0.0    0.0    0.0    0.0   0.00   0.00    0.00    0.00
 2017 139   190     1    0.0    0.0    0.0   0.00   0.00    0.0    0.0    0.0    0.0   0.00   0.00    0.00    0.00
 2017 140   191     2    0.0    0.0    0.0   0.00   0.00    0.0    0.0    0.0    0.0   0.00   0.00    0.00    0.00
 2017 141   192     3    0.0    0.0    0.0   0.00   0.00    0.0    0.0    0.0    0.0   0.00   0.00    0.00    0.00
 2017 142   193     4    0.0    0.0    0.0   0.00   0.00    0.0    0.0    0.0    0.0   0.00   0.00    0.00    0.00
 2017 143   194     5    0.0    0.0    0.0   0.00   0.00    0.0    0.0    0.0    0.0   0.00   0.00    0.00    0.00
 2017 144   195     6    0.0    0.0    0.0   0.00   0.00    0.0    0.0    0.0    0.0   0.00   0.00    0.00    0.00
 2017 145   196     7    0.0    0.0    0.0   0.00   0.00    0.0    0.0    0.0    0.0   0.00   0.00    0.00    0.00
 2017 146   197     8    0.0    0.0    0.0   0.00   0.00    0.0    0.0    0.0    0.0   0.00   0.00    0.00    0.00
 2017 147   198     9    0.0    0.0    0.0   0.00   0.00    0.0    0.0    0.0    0.0   0.00   0.00    0.00    0.00
 2017 148   199    10    0.0    0.0    0.0   0.00   0.00    0.0    0.0    0.0    0.0   0.00   0.00    0.00    0.00
 2017 149   200    11    0.0    0.0    0.0   0.00   0.00    0.0    0.0    0.0    0.0   0.00   0.00    0.00    0.00
 2017 150   201    12    1.2    0.0    1.2   0.00   4.40    0.0    0.6    0.6    4.4   4.40   2.20    0.00    0.00
 2017 151   202    13    1.2    0.0    1.2   0.00   4.40    0.0    0.6    0.6    4.4   4.40   2.18    0.00    0.00
 2017 152   203    14    1.2    0.0    1.2   0.00   4.40    0.0    0.6    0.6    4.4   4.40   2.13    0.00    0.00
 2017 153   204    15    1.2    0.0    1.2   0.00   4.40    0.0    0.6    0.6    4.4   4.40   2.06    0.00    0.00
 2017 154   205    16    1.2    0.0    1.2   0.00   4.40    0.0    0.6    0.6    4.4   4.40   1.98    0.00    0.00
 2017 155   206    17    1.2    0.0    1.2   0.00   4.40    0.0    0.6    0.6    4.4   4.40   1.88    0.00    0.00
 2017 156   207    18    1.2    0.0    1.2   0.00   4.40    0.0    0.6    0.6    4.4   4.40   1.75    0.00    0.00
 2017 157   208    19    1.2    0.0    1.2   0.00   4.40    0.0    0.6    0.6    4.4   4.40   1.60    0.00    0.00
 2017 158   209    20    1.2    0.0    1.2   0.00   4.40    0.0    0.6    0.6    4.4   4.40   1.39    0.00    0.00
 2017 159   210    21    1.2    0.0    1.2   0.00   4.17    0.0    0.6    0.6    4.2   4.17   1.22    0.00    0.00
 2017 160   211    22    1.2    0.0    1.2   0.00   3.63    0.0    0.7    0.5    3.6   3.63   1.11    0.00    0.00
 2017 161   212    23    1.3    0.0    1.3   0.00   3.26    0.2    0.9    0.5    3.3   3.26   1.14    0.00    0.00
 2017 162   213    24    1.6    0.0    1.6   0.00   3.15    0.4    1.2    0.4    3.1   3.15   1.15    0.00    0.00
 2017 163   214    25    2.0    0.0    2.0   0.00   3.17    0.9    1.5    0.4    3.2   3.17   1.19    0.00    0.01
 2017 164   215    26    2.4    0.0    2.4   0.00   3.04    1.3    2.0    0.4    3.0   3.04   1.16    0.00    0.01
 2017 165   216    27    3.1    0.0    3.1   0.00   3.04    2.1    2.6    0.4    3.0   3.04   1.18    0.00    0.01
 2017 166   217    28    3.8    0.0    3.8   0.00   3.06    2.9    3.4    0.4    3.1   3.06   1.21    0.00    0.01
 2017 167   218    29    5.8    0.0    5.8   0.00   3.80    5.0    5.3    0.5    3.8   3.80   1.22    0.00    0.02
 2017 168   219    30    6.8    0.0    6.8   0.00   3.75    6.2    6.3    0.5    3.8   3.75   1.25    0.00    0.02
 2017 169   220    31    7.7    0.0    7.7   0.00   3.71    7.4    7.2    0.5    3.7   3.71   1.27    0.00    0.02
 2017 170   221    32    8.0    0.0    8.0   0.00   3.63    8.1    7.5    0.5    3.6   3.63   1.32    0.00    0.03
 2017 171   222    33    8.3    0.0    8.3   0.00   3.56    8.7    7.8    0.5    3.6   3.56   1.28    0.00    0.04
 2017 172   223    34    8.8    0.0    8.8   0.00   3.52    9.5    8.3    0.5    3.5   3.52   1.24    0.00    0.05
 2017 173   224    35    9.3    0.0    9.3   0.00   3.49   10.4    8.8    0.5    3.5   3.49   1.23    0.00    0.06
 2017 174   225    36   10.2    0.0   10.2   0.00   3.44   11.5    9.7    0.5    3.4   3.44   1.18    0.00    0.07
 2017 175   226    37   10.9    0.0   10.9   0.00   3.39   12.6   10.3    0.6    3.4   3.39   1.20    0.00    0.08
 2017 176   227    38   11.6    0.0   11.6   0.00   3.36   13.7   11.0    0.6    3.4   3.36   1.19    0.00    0.10
 2017 177   228    39   12.2    0.0   12.2   0.00   3.33   14.8   11.5    0.7    3.3   3.33   1.19    0.00    0.12
 2017 178   229    40   12.9    0.0   12.9   0.00   3.31   15.9   12.1    0.7    3.3   3.31   1.17    0.00    0.14
 2017 179   230    41   13.7    0.0   13.7   0.00   3.29   17.1   12.8    0.8    3.3   3.29   1.16    0.00    0.16
 2017 180   231    42   15.1    0.0   15.1   0.00   3.26   18.8   14.1    1.0    3.3   3.26   1.14    0.00    0.18
 2017 181   232    43   16.7    0.0   16.7   0.00   3.22   20.7   15.4    1.2    3.2   3.22   1.13    0.00    0.21
 2017 182   233    44   18.5    0.0   18.5   0.00   3.19   22.9   16.9    1.6    3.2   3.19   1.13    0.00    0.24
 2017 183   234    45   20.1    0.0   20.1   0.00   3.15   25.0   18.3    1.9    3.2   3.15   1.14    0.00    0.27
 2017 184   235    46   22.4    0.0   22.4   0.00   3.12   27.5   20.0    2.4    3.1   3.12   1.12    0.00    0.30
 2017 185   236    47   25.9    0.0   25.9   0.00   3.08   31.0   22.7    3.3    3.1   3.08   1.08    0.00    0.33
 2017 186   237    48   29.3    0.0   29.3   0.00   3.04   34.7   25.1    4.2    3.0   3.04   1.10    0.00    0.36
 2017 187   238    49   33.2    0.0   33.2   0.00   3.00   38.6   27.8    5.4    3.0   3.00   1.09    0.00    0.39
 2017 188   239    50   37.0    0.0   37.0   0.00   2.94   42.5   30.3    6.7    2.9   2.94   1.08    0.00    0.43
 2017 189   240    51   40.2    0.0   40.2   0.00   2.82   45.8   32.1    8.1    2.8   2.82   1.08    0.00    0.46
 2017 190   241    52   43.1    0.0   43.1   0.00   2.72   48.9   33.7    9.4    2.7   2.72   1.07    0.00    0.49
 2017 191   242    53   45.6    0.0   45.6   0.00   2.64   51.6   35.0   10.6    2.6   2.64   1.06    0.00    0.53
 2017 192   243    54   47.9    0.0   47.9   0.00   2.51   54.1   36.4   11.5    2.5   2.51   1.06    0.00    0.56
 2017 193   244    55   50.0    0.0   50.0   0.00   2.38   56.2   36.7   13.3    2.4   2.38   1.05    0.00    0.60
 2017 194   245    56   51.7    0.0   51.7   0.00   2.25   58.0   36.5   15.2    2.3   2.25   1.05    0.00    0.63
 2017 195   246    57   53.3    0.0   53.3   0.00   2.16   59.6   36.3   17.0    2.2   2.16   1.03    0.00    0.67
 2017 196   247    58   54.6    0.0   54.6   0.00   2.08   61.0   36.1   18.5    2.1   2.08   1.01    0.00    0.70
 2017 197   248    59   55.7    0.0   55.7   0.00   2.03   62.2   36.1   19.7    2.0   2.03   0.97    0.00    0.74
 2017 198   249    60   56.8    0.0   56.8   0.00   1.97   63.4   35.8   21.0    2.0   1.97   0.96    0.00    0.78
 2017 199   250    61   57.7    0.0   57.7   0.00   1.92   64.4   35.6   22.0    1.9   1.92   0.93    0.00    0.81
 2017 200   251    62   58.5    0.0   58.5   0.00   1.86   65.3   35.2   23.2    1.9   1.86   0.92    0.00    0.85
 2017 201   252    63   59.3    0.0   59.3   0.00   1.79   66.1   34.8   24.5    1.8   1.79   0.91    0.00    0.89
 2017 202   253    64   59.9    0.0   59.9   0.00   1.74   66.8   34.4   25.5    1.7   1.74   0.91    0.00    0.93
 2017 203   254    65   60.5    0.0   60.5   0.00   1.69   67.5   34.0   26.5    1.7   1.69   0.91    0.00    0.96
 2017 204   255    66   61.0    0.0   61.0   0.00   1.67   68.1   34.1   26.9    1.7   1.67   0.88    0.00    1.00
 2017 205   256    67   62.0    0.0   62.0   0.00   1.66   69.2   34.4   27.7    1.7   1.66   0.86    0.00    1.04
 2017 206   257    68   63.2    0.0   63.2   0.00   1.65   70.5   34.7   28.5    1.6   1.65   0.87    0.00    1.08
 2017 207   258    69   64.3    0.0   64.3   0.00   1.65   71.7   35.2   29.2    1.7   1.65   0.86    0.00    1.12
 2017 208   259    70   65.6    0.0   65.6   0.00   1.65   73.1   35.6   29.9    1.6   1.65   0.86    0.00    1.16
 2017 209   260    71   66.7    0.0   66.7   0.00   1.65   74.3   36.2   30.5    1.7   1.65   0.86    0.00    1.20
 2017 210   261    72   67.7    0.0   67.7   0.00   1.66   75.5   36.8   30.9    1.7   1.66   0.87    0.00    1.24
 2017 211   262    73   68.8    0.0   68.8   0.00   1.66   76.6   37.4   31.3    1.7   1.66   0.87    0.00    1.28
 2017 212   263    74   69.7    0.0   69.7   0.00   1.66   77.7   37.1   32.7    1.7   1.66   0.88    0.00    1.32
 2017 213   264    75   70.7    0.0   70.7   0.00   1.67   78.8   36.7   33.9    1.7   1.67   0.88    0.00    1.36
 2017 214   265    76   71.5    0.0   71.5   0.00   1.68   79.7   36.4   35.1    1.7   1.68   0.89    0.00    1.40
 2017 215   266    77   72.2    0.0   72.2   0.00   1.68   80.5   36.0   36.2    1.7   1.68   0.89    0.00    1.44
 2017 216   267    78   72.9    0.0   72.9   0.00   1.69   81.3   35.7   37.3    1.7   1.69   0.90    0.00    1.48
 2017 217   268    79   73.6    0.0   73.6   0.00   1.70   82.1   35.3   38.3    1.7   1.70   0.90    0.00    1.53
 2017 218   269    80   74.3    0.0   74.3   0.00   1.72   82.9   35.0   39.3    1.7   1.72   0.91    0.00    1.57
 2017 219   270    81   74.9    0.0   74.9   0.00   1.73   83.6   34.6   40.3    1.7   1.73   0.92    0.00    1.61
 2017 220   271    82   75.5    0.0   75.5   0.00   1.75   84.3   34.2   41.3    1.7   1.75   0.92    0.00    1.65
 2017 221   272    83   76.1    0.0   76.1   0.00   1.76   85.0   33.9   42.2    1.8   1.76   0.93    0.00    1.70
 2017 222   273    84   76.6    0.0   76.6   0.00   1.78   85.7   33.5   43.1    1.8   1.78   0.94    0.00    1.74
 2017 223   274    85   77.1    0.0   77.1   0.00   1.80   86.3   33.0   44.0    1.8   1.80   0.95    0.00    1.79
 2017 224   275    86   77.5    0.0   77.5   0.00   1.82   86.8   32.6   44.9    1.8   1.82   0.96    0.00    1.83
 2017 225   276    87   77.8    0.0   77.8   0.00   1.84   87.4   32.1   45.7    1.8   1.84   0.98    0.00    1.88
 2017 226   277    88   78.2    1.9   76.3   1.70   1.80   87.9   31.5   44.8    1.8   1.80   0.99    0.00    1.92
 2017 227   278    89   78.6    3.8   74.8   1.70   1.77   88.4   30.9   43.9    1.8   1.77   1.00    0.00    1.97
 2017 228   279    90   79.0    5.7   73.3   1.70   1.73   88.9   30.3   43.1    1.7   1.73   1.00    0.00    2.02
 2017 229   280    91   79.4    7.5   71.8   1.69   1.70   89.4   29.7   42.2    1.7   1.70   1.01    0.00    2.06
 2017 230   281    92   79.7    9.4   70.3   1.69   1.66   89.8   29.0   41.3    1.7   1.66   1.02    0.00    2.11
 2017 231   282    93   80.0   11.3   68.7   1.69   1.63   90.2   28.4   40.4    1.6   1.63   1.02    0.00    2.16
 2017 232   283    94   80.2   13.1   67.1   1.68   1.59   90.5   27.7   39.4    1.6   1.59   1.03    0.00    2.21
 2017 233   284    95   80.5   14.9   65.6   1.68   1.55   90.8   27.1   38.5    1.6   1.55   1.03    0.00    2.26
 2017 234   285    96   80.7   16.7   64.0   1.67   1.51   91.1   26.4   37.6    1.5   1.51   1.03    0.00    2.30
 2017 235   286    97   81.0   18.5   62.5   1.67   1.48   91.4   25.8   36.7    1.5   1.48   1.04    0.00    2.35
 2017 236   287    98   81.2   20.3   60.9   1.66   1.44   91.7   25.1   35.8    1.4   1.44   1.04    0.00    2.40
 2017 237   288    99   81.4   22.0   59.4   1.65   1.40   91.9   24.5   34.9    1.4   1.40   1.05    0.00    2.45
 2017 238   289   100   81.6   23.7   57.9   1.64   1.37   92.2   23.9   34.0    1.4   1.37   1.05    0.00    2.50
 2017 239   290   101   81.8   25.4   56.4   1.63   1.34   92.5   23.3   33.1    1.3   1.34   1.06    0.00    2.54
 2017 240   291   102   82.1   27.1   55.0   1.62   1.31   92.7   22.8   32.2    1.3   1.31   1.06    0.00    2.59
 2017 241   292   103   82.3   28.7   53.5   1.61   1.28   93.0   22.3   31.3    1.3   1.28   1.07    0.00    2.64
 2017 242   293   104   82.4   30.3   52.1   1.61   1.25   93.2   21.8   30.4    1.2   1.25   1.07    0.00    2.69
 2017 243   294   105   82.6   31.9   50.7   1.60   1.22   93.4   21.2   29.4    1.2   1.22   1.08    0.00    2.74
 2017 244   295   106   82.8   33.5   49.3   1.59   1.19   93.6   20.8   28.5    1.2   1.19   1.08    0.00    2.78
 2017 245   296   107   82.9   35.0   48.0   1.58   1.16   93.8   20.3   27.6    1.2   1.16   1.09    0.00    2.83
 2017 246   297   108   83.1   36.2   46.9   1.57   1.14   94.1   19.9   27.0    1.1   1.14   1.09    0.00    2.88
 2017 247   298   109   83.3   37.7   45.6   1.56   1.12   94.3   19.5   26.1    1.1   1.12   1.09    0.00    2.93
 2017 248   299   110   83.5   39.2   44.4   1.55   1.10   94.5   19.2   25.2    1.1   1.10   1.10    0.00    2.98
 2017 249   300   111   83.8   40.6   43.1   1.54   1.08   94.8   18.8   24.3    1.1   1.08   1.10    0.00    3.02
 2017 250   301   112   84.0   41.7   42.3   1.53   1.06   95.1   18.5   23.8    1.1   1.06   1.11    0.00    3.07
 2017 251   302   113   84.2   42.7   41.5   1.52   1.05   95.3   18.2   23.3    1.0   1.05   1.11    0.00    3.12
 2017 252   303   114   84.4   44.1   40.4   1.51   1.03   95.6   17.9   22.5    1.0   1.03   1.12    0.00    3.17
 2017 253   304   115   84.6   45.4   39.2   1.50   1.01   95.8   17.7   21.5    1.0   1.01   1.12    0.00    3.21
 2017 254   305   116   84.8   46.6   38.2   1.50   1.00   96.0   17.4   20.8    1.0   1.00   1.12    0.00    3.26
 2017 255   306   117   85.1   47.8   37.3   1.49   0.98   96.3   17.2   20.1    1.0   0.98   1.13    0.00    3.31
 2017 256   307   118   85.3   49.2   36.1   1.48   0.97   96.6   16.9   19.2    1.0   0.97   1.13    0.00    3.36
 2017 257   308   119   85.5   50.5   35.0   1.47   0.96   96.8   16.7   18.3    1.0   0.96   1.13    0.00    3.40
 2017 258   309   120   85.7   51.8   33.9   1.46   0.94   97.0   16.5   17.4    0.9   0.94   1.14    0.00    3.45
 2017 259   310   121   85.9   53.1   32.7   1.45   0.93   97.2   16.2   16.5    0.9   0.93   1.14    0.00    3.50
 2017 260   311   122   86.0   54.4   31.5   1.44   0.91   97.4   15.9   15.6    0.9   0.91   1.15    0.00    3.55
 2017 261   312   123   86.1   55.7   30.4   1.44   0.90   97.6   15.7   14.7    0.9   0.90   1.15    0.00    3.59
 2017 262   313   124   86.2   56.1   30.1   1.43   0.90   97.7   15.7   14.4    0.9   0.90   1.15    0.00    3.64
 2017 263   314   125   86.4   56.5   29.9   1.43   0.89   97.9   15.6   14.3    0.9   0.89   1.16    0.00    3.69
 2017 264   315   126   86.5   56.8   29.7   1.43   0.89   98.0   15.5   14.2    0.9   0.89   1.16    0.00    3.73
 2017 265   316   127   86.7   57.2   29.5   1.43   0.88   98.2   15.4   14.1    0.9   0.88   1.16    0.00    3.78
 2017 266   317   128   86.8   57.5   29.3   1.43   0.87   98.4   15.3   14.0    0.9   0.87   1.17    0.00    3.83
 2017 267   318   129   86.9   57.9   29.1   1.43   0.87   98.5   15.2   13.9    0.9   0.87   1.17    0.00    3.87
 2017 268   319   130   87.1   58.2   28.9   1.43   0.86   98.7   15.1   13.8    0.9   0.86   1.17    0.00    3.92
 2017 269   320   131   87.2   58.5   28.7   1.43   0.86   98.8   15.0   13.8    0.9   0.86   1.18    0.00    3.96
 2017 270   321   132   87.4   58.8   28.6   1.42   0.85   99.0   14.9   13.7    0.9   0.85   1.18    0.00    4.01
 2017 271   322   133   87.5   59.0   28.4   1.42   0.85   99.1   14.8   13.6    0.8   0.85   1.18    0.00    4.06
 2017 272   323   134   87.6   59.3   28.3   1.42   0.85   99.3   14.8   13.6    0.8   0.85   1.18    0.00    4.10
 2017 273   324   135   87.7   59.6   28.2   1.42   0.84   99.4   14.7   13.5    0.8   0.84   1.18    0.00    4.15
 2017 274   325   136   87.8   59.8   28.0   1.42   0.84   99.5   14.6   13.4    0.8   0.84   1.19    0.00    4.19
 2017 275   326   137   87.9   60.0   27.8   1.42   0.83   99.6   14.5   13.3    0.8   0.83   1.19    0.00    4.24
 2017 276   327   138   87.9   60.0   27.8   1.42   0.83   99.6   14.5   13.3    0.8   0.83   1.19    0.00    4.24
 2017 277   328   139   87.9   60.0   27.8   1.42   0.83   99.6   14.5   13.3    0.8   0.83   1.19    0.00    4.24
 2017 278   329   140   87.9   60.0   27.8   1.42   0.83   99.6   14.5   13.3    0.8   0.83   1.19    0.00    4.24
 2017 279   330   141   87.9   60.0   27.8   1.42   0.83   99.6   14.5   13.3    0.8   0.83   1.19    0.00    4.24
 2017 280   331   142   87.9   60.0   27.8   1.42   0.83   99.6   14.5   13.3    0.8   0.83   1.19    0.00    4.24
 2017 281   332   143   87.9   60.0   27.8   1.42   0.83   99.6   14.5   13.3    0.8   0.83   1.19    0.00    4.24
 2017 282   333   144   87.9   60.0   27.8   1.42   0.83   99.6   14.5   13.3    0.8   0.83   1.19    0.00    4.24
 2017 283   334   145   87.9   60.0   27.8   1.42   0.83   99.6   14.5   13.3    0.8   0.83   1.19    0.00    4.24
 2017 284   335   146   87.9   60.0   27.8   1.42   0.83   99.6   14.5   13.3    0.8   0.83   1.19    0.00    4.24
 2017 285   336   147   87.9   60.0   27.8   1.42   0.83   99.6   14.5   13.3    0.8   0.83   1.19    0.00    4.24
 2017 286   337   148   87.9   60.0   27.8   1.42   0.83   99.6   14.5   13.3    0.8   0.83   1.19    0.00    4.24
 2017 287   338   149   87.9   60.0   27.8   1.42   0.83   99.6   14.5   13.3    0.8   0.83   1.19    0.00    4.24
 2017 288   339   150   87.9   60.0   27.8   1.42   0.83   99.6   14.5   13.3    0.8   0.83   1.19    0.00    4.24
