*Soil Organic Matter daily output file

*DSSAT Cropping System Model Ver. 4.6.1.000 -release      APR 22, 2019; 09:45:14
                                                                                
*RUN   1        : Sim1                      MZCER046 UINT1601    1              
 MODEL          : MZCER046 - Maize                                              
 EXPERIMENT     : UINT1601 MZ N TRACK                                           
 DATA PATH      :                                                               
 TREATMENT  1   : Sim1                      MZCER046                            
  
@YEAR DOY   DAS    OMAC    SCDD    SOCD    SC0D    SCTD   SOMCT    LCTD    ONAC    SNDD    SOND    SN0D    SNTD   SOMNT    LNTD
 2016 315     0       0   12827   64679       0   64679   62702  1976.8    0.00  1811.5  8914.0    0.00  8914.0  8854.6   59.36
 2016 316     1       0   12831   64671       0   64671   62708  1962.9    0.00  1811.8  8913.9    0.00  8913.9  8855.1   58.85
 2016 317     2       0   12834   64663       0   64663   62714  1949.2    0.00  1812.0  8913.9    0.00  8913.9  8855.6   58.34
 2016 318     3       0   12838   64655       0   64655   62720  1935.0    0.00  1812.3  8913.9    0.00  8913.9  8856.1   57.81
 2016 319     4       0   12841   64648       0   64648   62726  1921.8    0.00  1812.6  8913.8    0.00  8913.8  8856.5   57.32
 2016 320     5       0   12844   64641       0   64641   62731  1909.6    0.00  1812.9  8913.8    0.00  8913.8  8856.9   56.86
 2016 321     6       0   12847   64634       0   64634   62736  1897.7    0.00  1813.1  8913.8    0.00  8913.8  8857.4   56.42
 2016 322     7       0   12850   64627       0   64627   62742  1885.7    0.00  1813.4  8913.8    0.00  8913.8  8857.8   55.98
 2016 323     8       0   12853   64621       0   64621   62746  1874.6    0.00  1813.6  8913.7    0.00  8913.7  8858.2   55.56
 2016 324     9       0   12856   64614       0   64614   62752  1862.5    0.00  1813.9  8913.7    0.00  8913.7  8858.6   55.11
 2016 325    10       0   12860   64606       0   64606   62758  1847.6    0.00  1814.2  8913.7    0.00  8913.7  8859.1   54.56
 2016 326    11       0   12864   64597       0   64597   62765  1832.3    0.00  1814.5  8913.6    0.00  8913.6  8859.6   53.99
 2016 327    12       0   12867   64590       0   64590   62770  1819.9    0.00  1814.7  8913.6    0.00  8913.6  8860.1   53.53
 2016 328    13       0   12869   64585       0   64585   62775  1810.1    0.00  1814.9  8913.6    0.00  8913.6  8860.4   53.17
 2016 329    14       0   12871   64580       0   64580   62778  1802.5    0.00  1815.1  8913.6    0.00  8913.6  8860.7   52.89
 2016 330    15       0   12873   64577       0   64577   62780  1796.6    0.00  1815.2  8913.5    0.00  8913.5  8860.9   52.67
 2016 331    16       0   12874   64575       0   64575   62782  1792.4    0.00  1815.3  8913.5    0.00  8913.5  8861.0   52.51
 2016 332    17       0   12875   64572       0   64572   62784  1787.8    0.00  1815.4  8913.5    0.00  8913.5  8861.2   52.34
 2016 333    18       0   12876   64569       0   64569   62787  1782.4    0.00  1815.5  8913.5    0.00  8913.5  8861.4   52.14
 2016 334    19       0   12878   64565       0   64565   62789  1776.3    0.00  1815.6  8913.5    0.00  8913.5  8861.6   51.91
 2016 335    20       0   12881   64560       0   64560   62794  1766.3    0.00  1815.9  8913.5    0.00  8913.5  8861.9   51.54
 2016 336    21       0   12882   64556       0   64556   62796  1759.6    0.00  1816.0  8913.5    0.00  8913.5  8862.2   51.30
 2016 337    22       0   12885   64551       0   64551   62800  1751.5    0.00  1816.2  8913.5    0.00  8913.5  8862.5   50.99
 2016 338    23       0   12887   64547       0   64547   62804  1743.1    0.00  1816.4  8913.4    0.00  8913.4  8862.8   50.69
 2016 339    24       0   12889   64542       0   64542   62807  1735.0    0.00  1816.6  8913.4    0.00  8913.4  8863.0   50.38
 2016 340    25       0   12891   64538       0   64538   62811  1727.1    0.00  1816.7  8913.4    0.00  8913.4  8863.3   50.09
 2016 341    26       0   12893   64534       0   64534   62813  1720.6    0.00  1816.9  8913.4    0.00  8913.4  8863.5   49.85
 2016 342    27       0   12894   64531       0   64531   62816  1715.1    0.00  1817.0  8913.4    0.00  8913.4  8863.7   49.65
 2016 343    28       0   12896   64528       0   64528   62818  1709.8    0.00  1817.1  8913.4    0.00  8913.4  8863.9   49.45
 2016 344    29       0   12897   64525       0   64525   62820  1705.0    0.00  1817.2  8913.4    0.00  8913.4  8864.1   49.27
 2016 345    30       0   12898   64523       0   64523   62822  1700.6    0.00  1817.3  8913.4    0.00  8913.4  8864.2   49.11
 2016 346    31       0   12899   64520       0   64520   62824  1696.7    0.00  1817.4  8913.4    0.00  8913.4  8864.4   48.97
 2016 347    32       0   12900   64518       0   64518   62825  1693.2    0.00  1817.5  8913.3    0.00  8913.3  8864.5   48.83
 2016 348    33       0   12901   64516       0   64516   62827  1689.8    0.00  1817.6  8913.3    0.00  8913.3  8864.6   48.71
 2016 349    34       0   12902   64515       0   64515   62828  1686.6    0.00  1817.6  8913.3    0.00  8913.3  8864.7   48.59
 2016 350    35       0   12902   64513       0   64513   62829  1683.5    0.00  1817.7  8913.3    0.00  8913.3  8864.8   48.48
 2016 351    36       0   12903   64511       0   64511   62831  1680.7    0.00  1817.8  8913.3    0.00  8913.3  8864.9   48.37
 2016 352    37       0   12904   64510       0   64510   62832  1678.2    0.00  1817.8  8913.3    0.00  8913.3  8865.0   48.28
 2016 353    38       0   12904   64509       0   64509   62833  1676.0    0.00  1817.9  8913.3    0.00  8913.3  8865.1   48.20
 2016 354    39       0   12905   64507       0   64507   62833  1673.8    0.00  1817.9  8913.3    0.00  8913.3  8865.2   48.12
 2016 355    40       0   12906   64506       0   64506   62834  1671.8    0.00  1818.0  8913.3    0.00  8913.3  8865.2   48.04
 2016 356    41       0   12906   64505       0   64505   62835  1669.9    0.00  1818.0  8913.3    0.00  8913.3  8865.3   47.97
 2016 357    42       0   12907   64504       0   64504   62836  1667.9    0.00  1818.1  8913.3    0.00  8913.3  8865.4   47.90
 2016 358    43       0   12907   64503       0   64503   62837  1665.7    0.00  1818.1  8913.3    0.00  8913.3  8865.5   47.82
 2016 359    44       0   12908   64501       0   64501   62838  1663.4    0.00  1818.2  8913.3    0.00  8913.3  8865.5   47.73
 2016 360    45       0   12909   64500       0   64500   62839  1660.7    0.00  1818.2  8913.3    0.00  8913.3  8865.6   47.63
 2016 361    46       0   12909   64498       0   64498   62840  1657.6    0.00  1818.3  8913.3    0.00  8913.3  8865.7   47.52
 2016 362    47       0   12910   64496       0   64496   62842  1654.2    0.00  1818.4  8913.2    0.00  8913.2  8865.9   47.39
 2016 363    48       0   12911   64494       0   64494   62844  1650.4    0.00  1818.5  8913.2    0.00  8913.2  8866.0   47.25
 2016 364    49       0   12913   64491       0   64491   62845  1645.9    0.00  1818.6  8913.2    0.00  8913.2  8866.1   47.09
 2016 365    50       0   12914   64489       0   64489   62847  1641.3    0.00  1818.7  8913.2    0.00  8913.2  8866.3   46.92
 2016 366    51       0   12915   64486       0   64486   62850  1636.3    0.00  1818.8  8913.2    0.00  8913.2  8866.5   46.73
 2017 001    52       0   12916   64483       0   64483   62852  1631.4    0.00  1818.9  8913.2    0.00  8913.2  8866.6   46.55
 2017 002    53       0   12917   64481       0   64481   62854  1627.0    0.00  1819.0  8913.2    0.00  8913.2  8866.8   46.39
 2017 003    54       0   12918   64478       0   64478   62855  1623.0    0.00  1819.1  8913.2    0.00  8913.2  8866.9   46.24
 2017 004    55       0   12920   64476       0   64476   62857  1618.7    0.00  1819.1  8913.1    0.00  8913.1  8867.1   46.08
 2017 005    56       0   12921   64473       0   64473   62859  1614.2    0.00  1819.2  8913.1    0.00  8913.1  8867.2   45.92
 2017 006    57       0   12922   64471       0   64471   62861  1609.9    0.00  1819.3  8913.1    0.00  8913.1  8867.4   45.76
 2017 007    58       0   12923   64469       0   64469   62863  1606.2    0.00  1819.4  8913.1    0.00  8913.1  8867.5   45.62
 2017 008    59       0   12924   64467       0   64467   62864  1603.0    0.00  1819.5  8913.1    0.00  8913.1  8867.6   45.50
 2017 009    60       0   12924   64465       0   64465   62865  1600.4    0.00  1819.5  8913.1    0.00  8913.1  8867.7   45.40
 2017 010    61       0   12925   64464       0   64464   62866  1598.4    0.00  1819.6  8913.1    0.00  8913.1  8867.8   45.33
 2017 011    62       0   12925   64463       0   64463   62867  1596.6    0.00  1819.6  8913.1    0.00  8913.1  8867.8   45.26
 2017 012    63       0   12926   64462       0   64462   62867  1594.5    0.00  1819.7  8913.1    0.00  8913.1  8867.9   45.19
 2017 013    64       0   12927   64460       0   64460   62869  1591.9    0.00  1819.7  8913.1    0.00  8913.1  8868.0   45.09
 2017 014    65       0   12927   64459       0   64459   62870  1588.8    0.00  1819.8  8913.1    0.00  8913.1  8868.1   44.98
 2017 015    66       0   12928   64457       0   64457   62871  1585.2    0.00  1819.9  8913.0    0.00  8913.0  8868.2   44.84
 2017 016    67       0   12929   64454       0   64454   62873  1581.3    0.00  1820.0  8913.0    0.00  8913.0  8868.3   44.70
 2017 017    68       0   12930   64452       0   64452   62875  1577.6    0.00  1820.1  8913.0    0.00  8913.0  8868.5   44.56
 2017 018    69       0   12931   64451       0   64451   62876  1574.4    0.00  1820.1  8913.0    0.00  8913.0  8868.6   44.44
 2017 019    70       0   12932   64449       0   64449   62877  1571.9    0.00  1820.2  8913.0    0.00  8913.0  8868.6   44.35
 2017 020    71       0   12933   64447       0   64447   62878  1569.0    0.00  1820.2  8913.0    0.00  8913.0  8868.7   44.25
 2017 021    72       0   12934   64445       0   64445   62880  1565.6    0.00  1820.3  8913.0    0.00  8913.0  8868.8   44.12
 2017 022    73       0   12935   64443       0   64443   62881  1562.0    0.00  1820.4  8913.0    0.00  8913.0  8869.0   43.99
 2017 023    74       0   12936   64441       0   64441   62883  1557.4    0.00  1820.5  8912.9    0.00  8912.9  8869.1   43.82
 2017 024    75       0   12937   64437       0   64437   62886  1551.7    0.00  1820.6  8912.9    0.00  8912.9  8869.3   43.61
 2017 025    76       0   12939   64434       0   64434   62888  1545.6    0.00  1820.7  8912.9    0.00  8912.9  8869.5   43.38
 2017 026    77       0   12941   64430       0   64430   62891  1538.9    0.00  1820.8  8912.8    0.00  8912.8  8869.7   43.13
 2017 027    78       0   12942   64427       0   64427   62894  1533.1    0.00  1821.0  8912.8    0.00  8912.8  8869.9   42.92
 2017 028    79       0   12943   64424       0   64424   62896  1527.7    0.00  1821.1  8912.8    0.00  8912.8  8870.1   42.72
 2017 029    80       0   12945   64421       0   64421   62898  1523.3    0.00  1821.2  8912.8    0.00  8912.8  8870.2   42.56
 2017 030    81       0   12946   64419       0   64419   62900  1519.4    0.00  1821.3  8912.8    0.00  8912.8  8870.3   42.42
 2017 031    82       0   12947   64417       0   64417   62901  1515.8    0.00  1821.3  8912.7    0.00  8912.7  8870.5   42.28
 2017 032    83       0   12947   64415       0   64415   62902  1512.8    0.00  1821.4  8912.7    0.00  8912.7  8870.6   42.17
 2017 033    84       0   12948   64414       0   64414   62904  1509.8    0.00  1821.5  8912.7    0.00  8912.7  8870.7   42.06
 2017 034    85       0   12949   64411       0   64411   62905  1506.3    0.00  1821.5  8912.7    0.00  8912.7  8870.8   41.93
 2017 035    86       0   12950   64409       0   64409   62907  1502.7    0.00  1821.6  8912.7    0.00  8912.7  8870.9   41.80
 2017 036    87       0   12951   64408       0   64408   62908  1499.3    0.00  1821.7  8912.7    0.00  8912.7  8871.0   41.67
 2017 037    88       0   12952   64405       0   64405   62910  1495.8    0.00  1821.7  8912.6    0.00  8912.6  8871.1   41.55
 2017 038    89       0   12953   64404       0   64404   62911  1492.3    0.00  1821.8  8912.6    0.00  8912.6  8871.2   41.42
 2017 039    90       0   12954   64402       0   64402   62913  1489.2    0.00  1821.9  8912.6    0.00  8912.6  8871.3   41.30
 2017 040    91       0   12954   64400       0   64400   62914  1486.3    0.00  1821.9  8912.6    0.00  8912.6  8871.4   41.20
 2017 041    92       0   12955   64398       0   64398   62915  1482.6    0.00  1822.0  8912.6    0.00  8912.6  8871.5   41.06
 2017 042    93       0   12956   64396       0   64396   62917  1478.8    0.00  1822.1  8912.6    0.00  8912.6  8871.6   40.92
 2017 043    94       0   12957   64394       0   64394   62919  1475.0    0.00  1822.2  8912.5    0.00  8912.5  8871.8   40.78
 2017 044    95       0   12958   64391       0   64391   62920  1470.8    0.00  1822.2  8912.5    0.00  8912.5  8871.9   40.63
 2017 045    96       0   12959   64389       0   64389   62922  1466.5    0.00  1822.3  8912.5    0.00  8912.5  8872.0   40.47
 2017 046    97       0   12960   64386       0   64386   62924  1462.1    0.00  1822.4  8912.5    0.00  8912.5  8872.2   40.31
 2017 047    98       0   12962   64383       0   64383   62926  1456.5    0.00  1822.5  8912.5    0.00  8912.5  8872.3   40.10
 2017 048    99       0   12964   64379       0   64379   62929  1449.5    0.00  1822.7  8912.4    0.00  8912.4  8872.6   39.84
 2017 049   100       0   12965   64375       0   64375   62932  1442.5    0.00  1822.8  8912.4    0.00  8912.4  8872.8   39.58
 2017 050   101       0   12967   64371       0   64371   62935  1435.9    0.00  1822.9  8912.4    0.00  8912.4  8873.0   39.34
 2017 051   102       0   12969   64366       0   64366   62939  1427.4    0.00  1823.1  8912.3    0.00  8912.3  8873.3   39.03
 2017 052   103       0   12972   64360       0   64360   62943  1416.8    0.00  1823.3  8912.3    0.00  8912.3  8873.6   38.64
 2017 053   104       0   12975   64353       0   64353   62949  1403.9    0.00  1823.6  8912.2    0.00  8912.2  8874.1   38.17
 2017 054   105       0   12980   64343       0   64343   62956  1386.9    0.00  1823.9  8912.1    0.00  8912.1  8874.6   37.54
 2017 055   106       0   12985   64331       0   64331   62966  1365.5    0.00  1824.3  8912.1    0.00  8912.1  8875.3   36.76
 2017 056   107       0   12991   64318       0   64318   62975  1343.1    0.00  1824.8  8912.0    0.00  8912.0  8876.0   35.94
 2017 057   108       0   12995   64309       0   64309   62982  1327.4    0.00  1825.1  8911.9    0.00  8911.9  8876.5   35.36
 2017 058   109       0   12998   64302       0   64302   62987  1314.8    0.00  1825.4  8911.8    0.00  8911.8  8876.9   34.90
 2017 059   110       0   13001   64297       0   64297   62991  1305.9    0.00  1825.6  8911.8    0.00  8911.8  8877.2   34.58
 2017 060   111       0   13003   64293       0   64293   62994  1298.8    0.00  1825.7  8911.8    0.00  8911.8  8877.5   34.32
 2017 061   112       0   13004   64289       0   64289   62997  1292.5    0.00  1825.8  8911.7    0.00  8911.7  8877.7   34.08
 2017 062   113       0   13005   64287       0   64287   62999  1288.0    0.00  1825.9  8911.7    0.00  8911.7  8877.8   33.92
 2017 063   114       0   13007   64284       0   64284   63001  1283.2    0.00  1826.0  8911.7    0.00  8911.7  8878.0   33.74
 2017 064   115       0   13008   64281       0   64281   63003  1278.2    0.00  1826.1  8911.7    0.00  8911.7  8878.1   33.56
 2017 065   116       0   13009   64278       0   64278   63005  1273.7    0.00  1826.2  8911.6    0.00  8911.6  8878.3   33.40
 2017 066   117       0   13010   64276       0   64276   63006  1269.5    0.00  1826.3  8911.6    0.00  8911.6  8878.4   33.25
 2017 067   118       0   13011   64273       0   64273   63008  1265.2    0.00  1826.4  8911.6    0.00  8911.6  8878.5   33.09
 2017 068   119       0   13012   64271       0   64271   63010  1260.8    0.00  1826.4  8911.6    0.00  8911.6  8878.7   32.93
 2017 069   120       0   13014   64267       0   64267   63012  1255.0    0.00  1826.6  8911.5    0.00  8911.5  8878.8   32.72
 2017 070   121       0   13016   64263       0   64263   63015  1247.7    0.00  1826.7  8911.5    0.00  8911.5  8879.1   32.45
 2017 071   122       0   13017   64259       0   64259   63019  1240.2    0.00  1826.8  8911.5    0.00  8911.5  8879.3   32.17
 2017 072   123       0   13019   64255       0   64255   63021  1234.3    0.00  1827.0  8911.4    0.00  8911.4  8879.5   31.96
 2017 073   124       0   13020   64253       0   64253   63023  1230.2    0.00  1827.0  8911.4    0.00  8911.4  8879.6   31.81
 2017 074   125       0   13021   64251       0   64251   63024  1226.9    0.00  1827.1  8911.4    0.00  8911.4  8879.7   31.69
 2017 075   126       0   13021   64250       0   64250   63025  1224.3    0.00  1827.2  8911.4    0.00  8911.4  8879.8   31.59
 2017 076   127       0   13022   64248       0   64248   63026  1222.0    0.00  1827.2  8911.4    0.00  8911.4  8879.9   31.51
 2017 077   128       0   13022   64247       0   64247   63027  1219.7    0.00  1827.2  8911.4    0.00  8911.4  8879.9   31.43
 2017 078   129       0   13023   64246       0   64246   63028  1217.8    0.00  1827.3  8911.4    0.00  8911.4  8880.0   31.36
 2017 079   130       0   13024   64244       0   64244   63029  1215.3    0.00  1827.3  8911.3    0.00  8911.3  8880.1   31.27
 2017 080   131       0   13024   64242       0   64242   63030  1212.0    0.00  1827.4  8911.3    0.00  8911.3  8880.2   31.15
 2017 081   132       0   13025   64240       0   64240   63032  1207.9    0.00  1827.5  8911.3    0.00  8911.3  8880.3   31.00
 2017 082   133       0   13027   64236       0   64236   63035  1201.8    0.00  1827.6  8911.3    0.00  8911.3  8880.5   30.78
 2017 083   134       0   13029   64232       0   64232   63038  1194.7    0.00  1827.7  8911.2    0.00  8911.2  8880.7   30.52
 2017 084   135       0   13030   64229       0   64229   63040  1188.3    0.00  1827.8  8911.2    0.00  8911.2  8880.9   30.29
 2017 085   136       0   13032   64224       0   64224   63043  1180.6    0.00  1828.0  8911.2    0.00  8911.2  8881.2   30.01
 2017 086   137       0   13034   64220       0   64220   63046  1173.7    0.00  1828.1  8911.1    0.00  8911.1  8881.4   29.75
 2017 087   138       0   13035   64216       0   64216   63049  1166.9    0.00  1828.3  8911.1    0.00  8911.1  8881.6   29.51
 2017 088   139       0   13038   64211       0   64211   63053  1158.7    0.00  1828.4  8911.0    0.00  8911.0  8881.8   29.21
 2017 089   140       0   13040   64205       0   64205   63057  1148.7    0.00  1828.6  8911.0    0.00  8911.0  8882.1   28.85
 2017 090   141       0   13042   64199       0   64199   63061  1138.3    0.00  1828.8  8910.9    0.00  8910.9  8882.5   28.47
 2017 091   142       0   13044   64196       0   64196   63064  1132.2    0.00  1828.9  8910.9    0.00  8910.9  8882.6   28.25
 2017 092   143       0   13045   64193       0   64193   63066  1126.7    0.00  1829.0  8910.9    0.00  8910.9  8882.8   28.05
 2017 093   144       0   13047   64190       0   64190   63068  1121.6    0.00  1829.1  8910.8    0.00  8910.8  8882.9   27.87
 2017 094   145       0   13048   64186       0   64186   63070  1115.9    0.00  1829.2  8910.8    0.00  8910.8  8883.1   27.66
 2017 095   146       0   13049   64183       0   64183   63073  1110.1    0.00  1829.3  8910.7    0.00  8910.7  8883.3   27.45
 2017 096   147       0   13051   64180       0   64180   63075  1104.8    0.00  1829.4  8910.7    0.00  8910.7  8883.4   27.26
 2017 097   148       0   13052   64176       0   64176   63077  1099.0    0.00  1829.5  8910.6    0.00  8910.6  8883.6   27.05
 2017 098   149       0   13054   64173       0   64173   63080  1093.4    0.00  1829.6  8910.6    0.00  8910.6  8883.7   26.85
 2017 099   150       0   13055   64170       0   64170   63082  1087.6    0.00  1829.7  8910.5    0.00  8910.5  8883.9   26.63
 2017 100   151       0   13057   64166       0   64166   63085  1081.2    0.00  1829.8  8910.5    0.00  8910.5  8884.1   26.41
 2017 101   152       0   13058   64161       0   64161   63088  1073.4    0.00  1829.9  8910.4    0.00  8910.4  8884.3   26.12
 2017 102   153       0   13061   64156       0   64156   63092  1064.4    0.00  1830.1  8910.3    0.00  8910.3  8884.5   25.80
 2017 103   154       0   13063   64150       0   64150   63096  1054.0    0.00  1830.3  8910.3    0.00  8910.3  8884.8   25.43
 2017 104   155       0   13066   64143       0   64143   63101  1042.9    0.00  1830.5  8910.2    0.00  8910.2  8885.1   25.02
 2017 105   156       0   13068   64138       0   64138   63104  1033.5    0.00  1830.6  8910.1    0.00  8910.1  8885.4   24.69
 2017 106   157       0   13071   64132       0   64132   63108  1023.6    0.00  1830.8  8910.0    0.00  8910.0  8885.7   24.33
 2017 107   158       0   13073   64127       0   64127   63112  1015.0    0.00  1831.0  8909.9    0.00  8909.9  8885.9   24.02
 2017 108   159       0   13075   64121       0   64121   63116  1005.6    0.00  1831.1  8909.8    0.00  8909.8  8886.1   23.68
 2017 109   160       0   13078   64114       0   64114   63121   993.7    0.00  1831.3  8909.7    0.00  8909.7  8886.5   23.26
 2017 110   161       0   13081   64106       0   64106   63126   980.0    0.00  1831.5  8909.6    0.00  8909.6  8886.8   22.76
 2017 111   162       0   13085   64096       0   64096   63133   963.7    0.00  1831.8  8909.4    0.00  8909.4  8887.3   22.18
 2017 112   163       0   13088   64089       0   64089   63138   950.8    0.00  1832.0  8909.3    0.00  8909.3  8887.6   21.72
 2017 113   164       0   13091   64082       0   64082   63143   938.7    0.00  1832.2  8909.2    0.00  8909.2  8887.9   21.29
 2017 114   165       0   13094   64075       0   64075   63147   927.4    0.00  1832.4  8909.1    0.00  8909.1  8888.2   20.89
 2017 115   166       0   13097   64068       0   64068   63152   916.4    0.00  1832.6  8909.0    0.00  8909.0  8888.5   20.50
 2017 116   167       0   13099   64062       0   64062   63156   905.6    0.00  1832.8  8908.9    0.00  8908.9  8888.8   20.11
 2017 117   168       0   13102   64055       0   64055   63161   894.2    0.00  1833.0  8908.8    0.00  8908.8  8889.1   19.71
 2017 118   169       0   13105   64048       0   64048   63165   882.4    0.00  1833.2  8908.7    0.00  8908.7  8889.4   19.29
 2017 119   170       0   13107   64043       0   64043   63169   873.8    0.00  1833.3  8908.6    0.00  8908.6  8889.6   18.99
 2017 120   171       0   13109   64038       0   64038   63172   866.1    0.00  1833.4  8908.5    0.00  8908.5  8889.8   18.72
 2017 121   172       0   13111   64033       0   64033   63175   858.5    0.00  1833.6  8908.4    0.00  8908.4  8890.0   18.45
 2017 122   173       0   13112   64030       0   64030   63177   853.1    0.00  1833.6  8908.4    0.00  8908.4  8890.1   18.26
 2017 123   174       0   13113   64027       0   64027   63178   849.0    0.00  1833.7  8908.3    0.00  8908.3  8890.2   18.11
 2017 124   175       0   13114   64025       0   64025   63180   845.4    0.00  1833.7  8908.3    0.00  8908.3  8890.3   17.99
 2017 125   176       0   13115   64023       0   64023   63181   841.6    0.00  1833.8  8908.2    0.00  8908.2  8890.4   17.85
 2017 126   177       0   13116   64020       0   64020   63183   837.4    0.00  1833.9  8908.2    0.00  8908.2  8890.5   17.71
 2017 127   178       0   13117   64017       0   64017   63185   832.3    0.00  1833.9  8908.1    0.00  8908.1  8890.6   17.53
 2017 128   179       0   13118   64014       0   64014   63187   827.9    0.00  1834.0  8908.1    0.00  8908.1  8890.7   17.37
 2017 129   180       0   13119   64011       0   64011   63189   822.8    0.00  1834.1  8908.0    0.00  8908.0  8890.8   17.19
 2017 130   181       0   13121   64008       0   64008   63191   816.6    0.00  1834.2  8907.9    0.00  8907.9  8890.9   16.98
 2017 131   182       0   13122   64004       0   64004   63193   811.5    0.00  1834.2  8907.8    0.00  8907.8  8891.0   16.80
 2017 132   183       0   13123   64001       0   64001   63195   805.7    0.00  1834.3  8907.8    0.00  8907.8  8891.2   16.59
 2017 133   184       0   13125   63998       0   63998   63197   800.4    0.00  1834.4  8907.7    0.00  8907.7  8891.3   16.41
 2017 134   185       0   13126   63994       0   63994   63200   794.1    0.00  1834.5  8907.6    0.00  8907.6  8891.4   16.19
 2017 135   186       0   13128   63989       0   63989   63202   786.5    0.00  1834.6  8907.5    0.00  8907.5  8891.6   15.93
 2017 136   187       0   13130   63983       0   63983   63206   776.9    0.00  1834.7  8907.4    0.00  8907.4  8891.8   15.59
 2017 137   188       0   13132   63976       0   63976   63210   765.9    0.00  1834.9  8907.2    0.00  8907.2  8892.0   15.21
 2017 138   189       0   13135   63968       0   63968   63215   753.1    0.00  1835.1  8907.1    0.00  8907.1  8892.3   14.77
 2017 139   190       0   13139   63959       0   63959   63221   738.7    0.00  1835.3  8906.9    0.00  8906.9  8892.6   14.27
 2017 140   191       0   13143   63949       0   63949   63227   722.4    0.00  1835.5  8906.6    0.00  8906.6  8892.9   13.71
 2017 141   192       0   13146   63939       0   63939   63232   706.8    0.00  1835.7  8906.4    0.00  8906.4  8893.2   13.18
 2017 142   193       0   13149   63933       0   63933   63236   696.9    0.00  1835.8  8906.3    0.00  8906.3  8893.4   12.84
 2017 143   194       0   13150   63929       0   63929   63238   690.7    0.00  1835.9  8906.2    0.00  8906.2  8893.5   12.63
 2017 144   195       0   13151   63925       0   63925   63240   685.2    0.00  1836.0  8906.1    0.00  8906.1  8893.6   12.45
 2017 145   196       0   13153   63922       0   63922   63242   680.3    0.00  1836.1  8906.0    0.00  8906.0  8893.7   12.28
 2017 146   197       0   13153   63920       0   63920   63243   676.4    0.00  1836.1  8905.9    0.00  8905.9  8893.8   12.15
 2017 147   198       0   13154   63916       0   63916   63245   671.6    0.00  1836.2  8905.9    0.00  8905.9  8893.9   11.99
 2017 148   199       0   13156   63913       0   63913   63247   666.1    0.00  1836.2  8905.8    0.00  8905.8  8894.0   11.81
 2017 149   200       0   13157   63910       0   63910   63248   661.5    0.00  1836.3  8905.7    0.00  8905.7  8894.0   11.65
 2017 150   201       0   13158   63906       0   63906   63250   655.9    0.00  1836.4  8905.6    0.00  8905.6  8894.1   11.46
 2017 151   202       0   13159   63902       0   63902   63253   649.2    0.00  1836.4  8905.5    0.00  8905.5  8894.2   11.24
 2017 152   203       0   13161   63897       0   63897   63255   641.4    0.00  1836.5  8905.3    0.00  8905.3  8894.4   10.98
 2017 153   204       0   13163   63891       0   63891   63258   633.4    0.00  1836.6  8905.2    0.00  8905.2  8894.5   10.71
 2017 154   205       0   13164   63886       0   63886   63261   625.3    0.00  1836.7  8905.1    0.00  8905.1  8894.6   10.45
 2017 155   206       0   13166   63881       0   63881   63263   617.3    0.00  1836.8  8904.9    0.00  8904.9  8894.7   10.18
 2017 156   207       0   13168   63875       0   63875   63266   608.9    0.00  1836.9  8904.8    0.00  8904.8  8894.9    9.91
 2017 157   208       0   13170   63869       0   63869   63269   599.7    0.00  1837.0  8904.6    0.00  8904.6  8895.0    9.61
 2017 158   209       0   13172   63862       0   63862   63272   589.8    0.00  1837.2  8904.4    0.00  8904.4  8895.2    9.29
 2017 159   210       0   13175   63855       0   63855   63275   580.0    0.00  1837.3  8904.3    0.00  8904.3  8895.3    8.97
 2017 160   211       0   13176   63849       0   63849   63278   570.8    0.00  1837.4  8904.1    0.00  8904.1  8895.4    8.68
 2017 161   212       0   13178   63843       0   63843   63281   562.6    0.00  1837.5  8903.9    0.00  8903.9  8895.5    8.42
 2017 162   213       0   13180   63838       0   63838   63283   554.7    0.00  1837.5  8903.8    0.00  8903.8  8895.6    8.17
 2017 163   214       0   13181   63833       0   63833   63285   547.5    0.00  1837.6  8903.6    0.00  8903.6  8895.7    7.95
 2017 164   215       0   13183   63828       0   63828   63287   540.3    0.00  1837.7  8903.5    0.00  8903.5  8895.8    7.72
 2017 165   216       0   13184   63822       0   63822   63289   532.8    0.00  1837.7  8903.3    0.00  8903.3  8895.8    7.49
 2017 166   217       0   13186   63816       0   63816   63291   525.1    0.00  1837.8  8903.1    0.00  8903.1  8895.9    7.26
 2017 167   218       0   13187   63811       0   63811   63293   517.5    0.00  1837.9  8902.9    0.00  8902.9  8895.9    7.03
 2017 168   219       0   13189   63805       0   63805   63296   509.0    0.00  1837.9  8902.7    0.00  8902.7  8896.0    6.77
 2017 169   220       0   13190   63800       0   63800   63297   503.5    0.00  1838.0  8902.6    0.00  8902.6  8896.0    6.61
 2017 170   221       0   13191   63796       0   63796   63298   498.4    0.00  1838.0  8902.4    0.00  8902.4  8896.0    6.46
 2017 171   222       0   13192   63793       0   63793   63299   493.7    0.00  1838.0  8902.3    0.00  8902.3  8896.0    6.32
 2017 172   223       0   13192   63790       0   63790   63300   489.3    0.00  1838.0  8902.1    0.00  8902.1  8895.9    6.20
 2017 173   224       0   13193   63786       0   63786   63301   485.2    0.00  1838.0  8902.0    0.00  8902.0  8895.9    6.08
 2017 174   225       0   13194   63784       0   63784   63302   482.0    0.00  1838.1  8901.9    0.00  8901.9  8895.9    5.99
 2017 175   226       0   13194   63781       0   63781   63303   478.6    0.00  1838.1  8901.8    0.00  8901.8  8895.9    5.90
 2017 176   227       0   13195   63779       0   63779   63303   475.8    0.00  1838.1  8901.6    0.00  8901.6  8895.8    5.82
 2017 177   228       0   13195   63777       0   63777   63304   472.7    0.00  1838.1  8901.5    0.00  8901.5  8895.8    5.73
 2017 178   229       0   13196   63774       0   63774   63305   469.5    0.00  1838.1  8901.4    0.00  8901.4  8895.7    5.65
 2017 179   230       0   13197   63772       0   63772   63305   466.4    0.00  1838.1  8901.2    0.00  8901.2  8895.7    5.56
 2017 180   231       0   13197   63770       0   63770   63306   463.5    0.00  1838.1  8901.1    0.00  8901.1  8895.6    5.48
 2017 181   232       0   13198   63768       0   63768   63307   460.9    0.00  1838.1  8901.0    0.00  8901.0  8895.6    5.42
 2017 182   233       0   13198   63767       0   63767   63307   459.6    0.00  1838.0  8900.9    0.00  8900.9  8895.6    5.38
 2017 183   234       0   13198   63766       0   63766   63307   458.2    0.00  1838.0  8900.9    0.00  8900.9  8895.5    5.35
 2017 184   235       0   13199   63764       0   63764   63308   456.3    0.00  1838.0  8900.7    0.00  8900.7  8895.4    5.30
 2017 185   236       0   13199   63763       0   63763   63309   454.0    0.00  1838.0  8900.6    0.00  8900.6  8895.4    5.24
 2017 186   237       0   13200   63760       0   63760   63309   451.2    0.00  1838.0  8900.5    0.00  8900.5  8895.3    5.17
 2017 187   238       0   13200   63758       0   63758   63310   448.3    0.00  1838.0  8900.3    0.00  8900.3  8895.2    5.09
 2017 188   239       0   13201   63756       0   63756   63311   445.1    0.00  1837.9  8900.1    0.00  8900.1  8895.1    5.01
 2017 189   240       0   13201   63753       0   63753   63311   442.1    0.00  1837.9  8899.9    0.00  8899.9  8895.0    4.94
 2017 190   241       0   13202   63750       0   63750   63312   438.7    0.00  1837.9  8899.7    0.00  8899.7  8894.9    4.85
 2017 191   242       0   13203   63748       0   63748   63312   435.4    0.00  1837.8  8899.5    0.00  8899.5  8894.7    4.77
 2017 192   243       0   13203   63745       0   63745   63313   432.3    0.00  1837.8  8899.3    0.00  8899.3  8894.6    4.70
 2017 193   244       0   13203   63744       0   63744   63313   430.9    0.00  1837.7  8899.2    0.00  8899.2  8894.5    4.67
 2017 194   245       0   13204   63743       0   63743   63314   429.6    0.00  1837.7  8899.0    0.00  8899.0  8894.4    4.63
 2017 195   246       0   13204   63742       0   63742   63314   428.0    0.00  1837.7  8898.9    0.00  8898.9  8894.3    4.60
 2017 196   247       0   13204   63741       0   63741   63314   427.0    0.00  1837.6  8898.8    0.00  8898.8  8894.2    4.58
 2017 197   248       0   13205   63740       0   63740   63314   425.8    0.00  1837.6  8898.7    0.00  8898.7  8894.1    4.55
 2017 198   249       0   13205   63739       0   63739   63315   424.6    0.00  1837.6  8898.5    0.00  8898.5  8894.0    4.53
 2017 199   250       0   13205   63739       0   63739   63315   424.0    0.00  1837.5  8898.4    0.00  8898.4  8893.9    4.51
 2017 200   251       0   13205   63738       0   63738   63315   423.3    0.00  1837.5  8898.3    0.00  8898.3  8893.8    4.49
 2017 201   252       0   13205   63738       0   63738   63315   422.5    0.00  1837.5  8898.2    0.00  8898.2  8893.8    4.48
 2017 202   253       0   13206   63737       0   63737   63315   421.5    0.00  1837.5  8898.1    0.00  8898.1  8893.7    4.45
 2017 203   254       0   13206   63736       0   63736   63316   420.9    0.00  1837.4  8898.0    0.00  8898.0  8893.6    4.44
 2017 204   255       0   13206   63736       0   63736   63316   420.2    0.00  1837.4  8897.9    0.00  8897.9  8893.5    4.42
 2017 205   256       0   13206   63735       0   63735   63316   419.4    0.00  1837.4  8897.8    0.00  8897.8  8893.4    4.40
 2017 206   257       0   13207   63735       0   63735   63316   418.5    0.00  1837.3  8897.7    0.00  8897.7  8893.3    4.38
 2017 207   258       0   13207   63734       0   63734   63317   417.3    0.00  1837.3  8897.5    0.00  8897.5  8893.2    4.36
 2017 208   259       0   13207   63733       0   63733   63317   416.2    0.00  1837.2  8897.4    0.00  8897.4  8893.1    4.33
 2017 209   260       0   13207   63732       0   63732   63317   415.1    0.00  1837.2  8897.3    0.00  8897.3  8893.0    4.31
 2017 210   261       0   13207   63732       0   63732   63317   414.7    0.00  1837.2  8897.2    0.00  8897.2  8892.9    4.29
 2017 211   262       0   13208   63732       0   63732   63317   414.1    0.00  1837.1  8897.1    0.00  8897.1  8892.8    4.28
 2017 212   263       0   13208   63731       0   63731   63318   413.6    0.00  1837.1  8896.9    0.00  8896.9  8892.7    4.27
 2017 213   264       0   13208   63731       0   63731   63318   412.8    0.00  1837.1  8896.8    0.00  8896.8  8892.6    4.26
 2017 214   265       0   13208   63730       0   63730   63318   411.9    0.00  1837.0  8896.7    0.00  8896.7  8892.5    4.24
 2017 215   266       0   13208   63729       0   63729   63318   410.8    0.00  1837.0  8896.6    0.00  8896.6  8892.4    4.22
 2017 216   267       0   13209   63728       0   63728   63319   409.5    0.00  1836.9  8896.4    0.00  8896.4  8892.2    4.19
 2017 217   268       0   13209   63727       0   63727   63319   408.1    0.00  1836.9  8896.3    0.00  8896.3  8892.1    4.17
 2017 218   269       0   13209   63726       0   63726   63319   406.5    0.00  1836.8  8896.1    0.00  8896.1  8892.0    4.14
 2017 219   270       0   13209   63725       0   63725   63319   405.0    0.00  1836.7  8896.0    0.00  8896.0  8891.8    4.11
 2017 220   271       0   13209   63723       0   63723   63320   403.7    0.00  1836.7  8895.8    0.00  8895.8  8891.7    4.09
 2017 221   272       0   13209   63723       0   63723   63320   402.7    0.00  1836.6  8895.7    0.00  8895.7  8891.6    4.08
 2017 222   273       0   13210   63722       0   63722   63320   401.9    0.00  1836.6  8895.6    0.00  8895.6  8891.5    4.06
 2017 223   274       0   13210   63722       0   63722   63320   401.2    0.00  1836.6  8895.4    0.00  8895.4  8891.4    4.06
 2017 224   275       0   13210   63721       0   63721   63321   400.4    0.00  1836.5  8895.3    0.00  8895.3  8891.3    4.05
 2017 225   276       0   13210   63720       0   63720   63321   399.5    0.00  1836.5  8895.2    0.00  8895.2  8891.2    4.04
 2017 226   277       0   13210   63720       0   63720   63321   398.6    0.00  1836.4  8895.1    0.00  8895.1  8891.1    4.03
 2017 227   278       0   13210   63719       0   63719   63321   397.9    0.00  1836.4  8895.0    0.00  8895.0  8891.0    4.02
 2017 228   279       0   13210   63719       0   63719   63321   397.2    0.00  1836.3  8894.9    0.00  8894.9  8890.8    4.01
 2017 229   280       0   13210   63718       0   63718   63322   396.5    0.00  1836.3  8894.8    0.00  8894.8  8890.7    4.01
 2017 230   281       0   13211   63718       0   63718   63322   395.8    0.00  1836.2  8894.6    0.00  8894.6  8890.6    4.00
 2017 231   282       0   13211   63717       0   63717   63322   395.4    0.00  1836.2  8894.6    0.00  8894.6  8890.6    4.00
 2017 232   283       0   13211   63717       0   63717   63322   394.7    0.00  1836.2  8894.5    0.00  8894.5  8890.5    4.00
 2017 233   284       0   13211   63716       0   63716   63322   393.7    0.00  1836.1  8894.3    0.00  8894.3  8890.3    3.99
 2017 234   285       0   13211   63715       0   63715   63323   392.7    0.00  1836.1  8894.2    0.00  8894.2  8890.2    3.98
 2017 235   286       0   13211   63715       0   63715   63323   392.1    0.00  1836.1  8894.1    0.00  8894.1  8890.1    3.97
 2017 236   287       0   13211   63715       0   63715   63323   391.6    0.00  1836.0  8894.0    0.00  8894.0  8890.0    3.97
 2017 237   288       0   13211   63714       0   63714   63323   391.1    0.00  1836.0  8893.9    0.00  8893.9  8889.9    3.97
 2017 238   289       0   13211   63714       0   63714   63323   390.4    0.00  1835.9  8893.8    0.00  8893.8  8889.9    3.97
 2017 239   290       0   13211   63713       0   63713   63324   389.8    0.00  1835.9  8893.7    0.00  8893.7  8889.8    3.96
 2017 240   291       0   13211   63713       0   63713   63324   389.3    0.00  1835.9  8893.6    0.00  8893.6  8889.7    3.96
 2017 241   292       0   13211   63713       0   63713   63324   388.9    0.00  1835.8  8893.5    0.00  8893.5  8889.6    3.97
 2017 242   293       0   13212   63713       0   63713   63324   388.9    0.00  1835.8  8893.5    0.00  8893.5  8889.5    3.98
 2017 243   294       0   13212   63713       0   63713   63324   388.9    0.00  1835.8  8893.4    0.00  8893.4  8889.4    3.98
 2017 244   295       0   13212   63713       0   63713   63324   388.6    0.00  1835.8  8893.4    0.00  8893.4  8889.4    3.99
 2017 245   296       0   13212   63713       0   63713   63325   388.3    0.00  1835.7  8893.3    0.00  8893.3  8889.3    3.99
 2017 246   297       0   13212   63713       0   63713   63325   387.8    0.00  1835.7  8893.2    0.00  8893.2  8889.2    3.99
 2017 247   298       0   13212   63712       0   63712   63325   387.4    0.00  1835.7  8893.1    0.00  8893.1  8889.1    4.00
 2017 248   299       0   13212   63712       0   63712   63325   387.0    0.00  1835.6  8893.0    0.00  8893.0  8889.0    4.00
 2017 249   300       0   13212   63712       0   63712   63325   386.4    0.00  1835.6  8892.9    0.00  8892.9  8888.9    4.00
 2017 250   301       0   13212   63711       0   63711   63325   385.7    0.00  1835.6  8892.8    0.00  8892.8  8888.8    4.00
 2017 251   302       0   13212   63711       0   63711   63326   385.2    0.00  1835.5  8892.8    0.00  8892.8  8888.8    4.00
 2017 252   303       0   13212   63710       0   63710   63326   384.7    0.00  1835.5  8892.7    0.00  8892.7  8888.7    4.00
 2017 253   304       0   13212   63710       0   63710   63326   384.2    0.00  1835.4  8892.6    0.00  8892.6  8888.6    4.01
 2017 254   305       0   13212   63710       0   63710   63326   383.8    0.00  1835.4  8892.5    0.00  8892.5  8888.5    4.01
 2017 255   306       0   13212   63710       0   63710   63326   383.5    0.00  1835.4  8892.5    0.00  8892.5  8888.4    4.02
 2017 256   307       0   13213   63710       0   63710   63326   383.3    0.00  1835.3  8892.4    0.00  8892.4  8888.4    4.03
 2017 257   308       0   13213   63710       0   63710   63327   382.9    0.00  1835.3  8892.3    0.00  8892.3  8888.3    4.03
 2017 258   309       0   13213   63709       0   63709   63327   382.6    0.00  1835.3  8892.2    0.00  8892.2  8888.2    4.04
 2017 259   310       0   13213   63709       0   63709   63327   382.2    0.00  1835.2  8892.2    0.00  8892.2  8888.1    4.04
 2017 260   311       0   13213   63709       0   63709   63327   381.8    0.00  1835.2  8892.1    0.00  8892.1  8888.1    4.05
 2017 261   312       0   13213   63709       0   63709   63327   381.2    0.00  1835.2  8892.0    0.00  8892.0  8888.0    4.04
 2017 262   313       0   13213   63708       0   63708   63328   380.5    0.00  1835.1  8891.9    0.00  8891.9  8887.9    4.04
 2017 263   314       0   13213   63708       0   63708   63328   379.8    0.00  1835.1  8891.8    0.00  8891.8  8887.8    4.04
 2017 264   315       0   13213   63707       0   63707   63328   378.8    0.00  1835.0  8891.7    0.00  8891.7  8887.7    4.03
 2017 265   316       0   13213   63706       0   63706   63328   377.8    0.00  1835.0  8891.6    0.00  8891.6  8887.6    4.02
 2017 266   317       0   13213   63705       0   63705   63328   376.9    0.00  1834.9  8891.5    0.00  8891.5  8887.5    4.01
 2017 267   318       0   13213   63705       0   63705   63329   375.9    0.00  1834.9  8891.4    0.00  8891.4  8887.4    4.00
 2017 268   319       0   13213   63704       0   63704   63329   374.9    0.00  1834.8  8891.3    0.00  8891.3  8887.3    3.99
 2017 269   320       0   13214   63703       0   63703   63329   373.7    0.00  1834.8  8891.2    0.00  8891.2  8887.2    3.98
 2017 270   321       0   13214   63702       0   63702   63329   372.6    0.00  1834.7  8891.1    0.00  8891.1  8887.1    3.97
 2017 271   322       0   13214   63701       0   63701   63330   371.5    0.00  1834.7  8891.0    0.00  8891.0  8887.0    3.95
 2017 272   323       0   13214   63700       0   63700   63330   370.6    0.00  1834.6  8890.9    0.00  8890.9  8886.9    3.94
 2017 273   324       0   13214   63700       0   63700   63330   370.0    0.00  1834.6  8890.8    0.00  8890.8  8886.8    3.94
 2017 274   325       0   13214   63700       0   63700   63330   369.7    0.00  1834.6  8890.7    0.00  8890.7  8886.8    3.95
 2017 275   326       0   13214   63700       0   63700   63330   369.6    0.00  1834.5  8890.7    0.00  8890.7  8886.7    3.95
 2017 276   327       0   13214   63700       0   63700   63330   369.8    0.00  1834.5  8890.6    0.00  8890.6  8886.6    3.97
 2017 277   328       0   13214   63699       0   63699   63330   368.6    0.00  1834.5  8890.5    0.00  8890.5  8886.6    3.94
 2017 278   329       0   13214   63698       0   63698   63330   367.3    0.00  1834.5  8890.5    0.00  8890.5  8886.6    3.91
 2017 279   330       0   13214   63696       0   63696   63330   365.9    0.00  1834.5  8890.4    0.00  8890.4  8886.5    3.88
 2017 280   331       0   13214   63695       0   63695   63331   364.6    0.00  1834.4  8890.3    0.00  8890.3  8886.4    3.85
 2017 281   332       0   13214   63694       0   63694   63331   363.2    0.00  1834.4  8890.2    0.00  8890.2  8886.4    3.82
 2017 282   333       0   13214   63692       0   63692   63331   361.4    0.00  1834.4  8890.1    0.00  8890.1  8886.3    3.78
 2017 283   334       0   13214   63690       0   63690   63331   359.7    0.00  1834.3  8890.0    0.00  8890.0  8886.2    3.74
 2017 284   335       0   13214   63689       0   63689   63331   358.0    0.00  1834.3  8889.9    0.00  8889.9  8886.2    3.71
 2017 285   336       0   13214   63687       0   63687   63331   356.4    0.00  1834.3  8889.8    0.00  8889.8  8886.1    3.67
 2017 286   337       0   13214   63686       0   63686   63331   355.1    0.00  1834.3  8889.7    0.00  8889.7  8886.0    3.65
 2017 287   338       0   13214   63685       0   63685   63331   353.9    0.00  1834.3  8889.6    0.00  8889.6  8886.0    3.62
 2017 288   339       0   13214   63684       0   63684   63331   352.8    0.00  1834.2  8889.5    0.00  8889.5  8885.9    3.60
