*SOIL TEMPERATURE OUTPUT FILE (DAILY)

*DSSAT Cropping System Model Ver. 4.6.1.000 -release      APR 22, 2019; 09:45:14
                                                                                
*RUN   1        : Sim1                      MZCER046 UINT1601    1              
 MODEL          : MZCER046 - Maize                                              
 EXPERIMENT     : UINT1601 MZ N TRACK                                           
 DATA PATH      :                                                               
 TREATMENT  1   : Sim1                      MZCER046                            
  
! TAV  =    12.0
! TAMP =    26.0
!               Temperature (oC) by soil depth (cm):
!               Surface     0-5    5-15   15-30   30-45   45-60   60-90  90-120 120-150
@YEAR DOY   DAS    TS0D    TS1D    TS2D    TS3D    TS4D    TS5D    TS6D    TS7D    TS8D    
 2016 316     1    10.5    10.6    10.9    11.4    11.9    12.5    13.1    13.9    14.6
 2016 317     2    11.1    11.2    11.4    11.9    12.4    12.9    13.6    14.3    14.9
 2016 318     3    10.4    10.5    10.8    11.3    11.9    12.4    13.1    13.9    14.5
 2016 319     4     9.7     9.8    10.2    10.7    11.3    11.8    12.5    13.4    14.1
 2016 320     5     9.7     9.8    10.1    10.6    11.2    11.7    12.5    13.3    14.0
 2016 321     6     9.8     9.9    10.2    10.7    11.3    11.8    12.6    13.4    14.1
 2016 322     7     9.2     9.3     9.6    10.2    10.8    11.3    12.1    13.0    13.7
 2016 323     8    10.3    10.4    10.7    11.2    11.8    12.3    12.9    13.7    14.4
 2016 324     9    12.7    12.7    13.0    13.4    13.8    14.2    14.8    15.4    15.9
 2016 325    10    13.2    13.3    13.5    13.9    14.3    14.7    15.2    15.8    16.2
 2016 326    11    11.0    11.1    11.4    11.9    12.4    12.9    13.5    14.2    14.8
 2016 327    12     8.6     8.7     9.1     9.6    10.2    10.8    11.6    12.5    13.3
 2016 328    13     6.3     6.5     6.9     7.5     8.2     8.9     9.8    10.9    11.8
 2016 329    14     3.1     3.3     3.8     4.5     5.4     6.2     7.3     8.6     9.8
 2016 330    15     1.5     1.6     2.1     3.0     3.9     4.7     5.9     7.3     8.6
 2016 331    16     1.9     2.1     2.6     3.3     4.2     5.1     6.2     7.6     8.8
 2016 332    17     3.0     3.1     3.6     4.3     5.2     6.0     7.0     8.3     9.5
 2016 333    18     3.7     3.9     4.3     5.0     5.8     6.6     7.6     8.9     9.9
 2016 334    19     4.1     4.2     4.7     5.3     6.1     6.9     7.9     9.1    10.1
 2016 335    20     4.6     4.8     5.2     5.8     6.5     7.2     8.2     9.3    10.3
 2016 336    21     5.7     5.8     6.2     6.7     7.4     8.0     8.9    10.0    10.9
 2016 337    22     5.5     5.6     6.0     6.6     7.2     7.9     8.7     9.8    10.7
 2016 338    23     5.0     5.1     5.5     6.1     6.8     7.4     8.3     9.4    10.4
 2016 339    24     4.4     4.5     4.9     5.5     6.2     6.9     7.8     9.0    10.0
 2016 340    25     3.1     3.2     3.6     4.3     5.0     5.7     6.8     8.0     9.1
 2016 341    26     1.5     1.7     2.1     2.8     3.7     4.4     5.5     6.9     8.0
 2016 342    27     0.9     1.1     1.5     2.3     3.1     3.9     5.0     6.4     7.6
 2016 343    28     0.3     0.4     0.9     1.6     2.5     3.3     4.5     5.9     7.1
 2016 344    29    -0.7    -0.6    -0.1     0.7     1.6     2.4     3.6     5.1     6.4
 2016 345    30    -1.6    -1.4    -0.9    -0.1     0.8     1.7     3.0     4.5     5.9
 2016 346    31    -2.3    -2.1    -1.6    -0.8     0.1     1.1     2.4     3.9     5.3
 2016 347    32    -2.7    -2.5    -2.0    -1.2    -0.2     0.7     2.0     3.6     5.1
 2016 348    33    -3.2    -3.0    -2.5    -1.6    -0.6     0.3     1.6     3.2     4.7
 2016 349    34    -3.5    -3.3    -2.8    -1.9    -0.9     0.0     1.3     3.0     4.5
 2016 350    35    -4.2    -4.0    -3.4    -2.6    -1.6    -0.6     0.8     2.5     4.0
 2016 351    36    -4.9    -4.7    -4.2    -3.3    -2.2    -1.2     0.2     1.9     3.5
 2016 352    37    -5.7    -5.5    -4.9    -4.0    -3.0    -1.9    -0.5     1.3     2.9
 2016 353    38    -5.8    -5.6    -5.1    -4.2    -3.1    -2.1    -0.6     1.2     2.8
 2016 354    39    -6.2    -6.0    -5.4    -4.5    -3.4    -2.4    -0.9     0.9     2.5
 2016 355    40    -6.6    -6.4    -5.9    -4.9    -3.8    -2.8    -1.3     0.5     2.2
 2016 356    41    -6.5    -6.3    -5.8    -4.8    -3.8    -2.7    -1.3     0.5     2.2
 2016 357    42    -5.8    -5.6    -5.1    -4.2    -3.2    -2.2    -0.8     1.0     2.6
 2016 358    43    -5.1    -4.9    -4.4    -3.6    -2.6    -1.6    -0.2     1.4     3.0
 2016 359    44    -4.1    -4.0    -3.5    -2.7    -1.7    -0.8     0.5     2.1     3.5
 2016 360    45    -2.2    -2.0    -1.6    -0.9     0.0     0.8     2.0     3.4     4.7
 2016 361    46    -0.6    -0.5    -0.1     0.6     1.3     2.1     3.1     4.5     5.7
 2016 362    47     0.9     1.0     1.4     2.0     2.7     3.3     4.3     5.5     6.6
 2016 363    48     1.6     1.7     2.1     2.6     3.3     3.9     4.8     6.0     7.0
 2016 364    49     1.6     1.7     2.0     2.6     3.2     3.8     4.7     5.9     6.9
 2016 365    50     1.9     2.0     2.3     2.8     3.5     4.1     4.9     6.0     7.1
 2016 366    51     1.4     1.5     1.8     2.3     3.0     3.6     4.5     5.6     6.7
 2017 001    52     0.4     0.6     0.9     1.5     2.2     2.9     3.9     5.2     6.3
 2017 002    53    -0.6    -0.5    -0.1     0.5     1.3     2.0     3.0     4.3     5.5
 2017 003    54    -0.1     0.0     0.4     1.0     1.7     2.4     3.4     4.7     5.8
 2017 004    55    -0.1     0.0     0.4     1.0     1.7     2.4     3.4     4.6     5.8
 2017 005    56    -0.4    -0.3     0.1     0.7     1.4     2.1     3.1     4.3     5.5
 2017 006    57    -1.5    -1.3    -1.0    -0.3     0.4     1.2     2.2     3.5     4.8
 2017 007    58    -2.5    -2.4    -2.0    -1.3    -0.5     0.2     1.3     2.7     4.0
 2017 008    59    -4.0    -3.9    -3.4    -2.7    -1.9    -1.0     0.1     1.6     3.0
 2017 009    60    -5.7    -5.6    -5.1    -4.3    -3.4    -2.5    -1.3     0.3     1.8
 2017 010    61    -6.1    -5.9    -5.4    -4.7    -3.7    -2.9    -1.6     0.1     1.6
 2017 011    62    -4.9    -4.8    -4.4    -3.6    -2.8    -1.9    -0.7     0.8     2.2
 2017 012    63    -2.7    -2.6    -2.2    -1.6    -0.8    -0.1     1.0     2.3     3.6
 2017 013    64    -1.4    -1.3    -0.9    -0.4     0.3     1.0     2.0     3.2     4.4
 2017 014    65    -0.5    -0.4    -0.1     0.4     1.1     1.7     2.6     3.8     4.9
 2017 015    66    -0.2    -0.1     0.2     0.8     1.4     2.0     2.9     4.0     5.1
 2017 016    67    -0.8    -0.7    -0.4     0.1     0.8     1.4     2.3     3.5     4.6
 2017 017    68    -1.8    -1.7    -1.3    -0.8    -0.1     0.5     1.5     2.7     3.9
 2017 018    69    -1.5    -1.3    -1.0    -0.5     0.2     0.8     1.7     2.9     4.1
 2017 019    70    -0.7    -0.6    -0.3     0.2     0.8     1.3     2.2     3.3     4.4
 2017 020    71     0.2     0.3     0.5     1.0     1.5     2.1     2.9     3.9     4.9
 2017 021    72     1.3     1.3     1.6     2.0     2.5     3.0     3.7     4.6     5.5
 2017 022    73     2.7     2.7     2.9     3.3     3.7     4.1     4.7     5.6     6.4
 2017 023    74     4.0     4.0     4.2     4.5     4.8     5.2     5.8     6.5     7.2
 2017 024    75     4.3     4.3     4.5     4.8     5.1     5.4     6.0     6.7     7.4
 2017 025    76     4.7     4.7     4.9     5.1     5.4     5.7     6.2     6.9     7.6
 2017 026    77     4.6     4.6     4.8     5.0     5.3     5.6     6.1     6.8     7.4
 2017 027    78     3.7     3.7     3.9     4.1     4.5     4.8     5.3     6.0     6.8
 2017 028    79     1.7     1.8     2.0     2.3     2.7     3.1     3.8     4.6     5.4
 2017 029    80     0.8     0.8     1.1     1.4     1.9     2.3     3.0     3.9     4.7
 2017 030    81    -0.2    -0.1     0.1     0.5     1.0     1.4     2.1     3.1     4.0
 2017 031    82    -1.4    -1.4    -1.1    -0.7    -0.2     0.3     1.1     2.1     3.1
 2017 032    83    -1.7    -1.7    -1.4    -1.0    -0.5     0.1     0.8     1.9     2.9
 2017 033    84    -1.0    -0.9    -0.6    -0.3     0.2     0.7     1.4     2.4     3.4
 2017 034    85    -1.0    -1.0    -0.7    -0.3     0.1     0.6     1.3     2.3     3.2
 2017 035    86    -1.4    -1.3    -1.1    -0.7    -0.2     0.3     1.0     2.0     2.9
 2017 036    87    -1.3    -1.2    -1.0    -0.6    -0.1     0.3     1.0     2.0     3.0
 2017 037    88    -1.6    -1.5    -1.3    -0.9    -0.4     0.0     0.8     1.7     2.7
 2017 038    89    -2.1    -2.0    -1.8    -1.4    -0.9    -0.4     0.3     1.3     2.3
 2017 039    90     0.0     0.0     0.2     0.5     0.9     1.3     1.9     2.8     3.6
 2017 040    91     1.6     1.6     1.7     2.0     2.3     2.6     3.1     3.8     4.6
 2017 041    92     1.5     1.6     1.7     1.9     2.2     2.6     3.1     3.8     4.5
 2017 042    93     1.2     1.3     1.4     1.7     2.0     2.3     2.8     3.5     4.2
 2017 043    94     1.7     1.7     1.8     2.0     2.3     2.6     3.1     3.8     4.5
 2017 044    95     1.4     1.5     1.6     1.8     2.1     2.4     2.9     3.5     4.2
 2017 045    96     1.2     1.3     1.4     1.6     1.9     2.2     2.7     3.4     4.1
 2017 046    97     2.8     2.8     2.9     3.1     3.3     3.5     3.9     4.4     5.0
 2017 047    98     4.3     4.3     4.4     4.5     4.6     4.8     5.1     5.5     6.0
 2017 048    99     4.2     4.2     4.2     4.3     4.5     4.6     4.9     5.4     5.8
 2017 049   100     3.4     3.4     3.5     3.6     3.7     3.9     4.2     4.7     5.3
 2017 050   101     5.3     5.3     5.3     5.3     5.4     5.5     5.7     6.0     6.4
 2017 051   102     7.2     7.1     7.1     7.1     7.1     7.1     7.2     7.3     7.6
 2017 052   103     9.2     9.1     9.1     8.9     8.8     8.8     8.7     8.8     8.9
 2017 053   104    12.2    12.2    12.0    11.8    11.5    11.3    11.1    10.9    10.8
 2017 054   105    14.7    14.6    14.4    14.0    13.7    13.4    13.0    12.6    12.4
 2017 055   106    15.1    15.0    14.8    14.4    14.0    13.7    13.3    12.9    12.6
 2017 056   107    14.0    13.9    13.7    13.4    13.0    12.7    12.4    12.0    11.8
 2017 057   108    11.3    11.2    11.1    10.9    10.6    10.4    10.2    10.1    10.0
 2017 058   109     7.6     7.6     7.5     7.4     7.3     7.3     7.3     7.4     7.5
 2017 059   110     5.5     5.5     5.5     5.4     5.4     5.5     5.6     5.8     6.1
 2017 060   111     4.2     4.2     4.2     4.2     4.3     4.4     4.5     4.8     5.2
 2017 061   112     5.0     5.0     5.0     5.0     5.0     5.0     5.1     5.3     5.7
 2017 062   113     5.2     5.2     5.2     5.2     5.1     5.2     5.2     5.5     5.7
 2017 063   114     5.2     5.2     5.1     5.1     5.1     5.1     5.2     5.4     5.7
 2017 064   115     4.1     4.1     4.1     4.1     4.1     4.2     4.3     4.6     4.9
 2017 065   116     3.0     3.0     3.0     3.0     3.1     3.2     3.4     3.7     4.1
 2017 066   117     2.8     2.8     2.8     2.9     2.9     3.0     3.2     3.5     4.0
 2017 067   118     5.0     5.0     5.0     4.9     4.9     4.9     4.9     5.1     5.4
 2017 068   119     7.0     7.0     6.9     6.7     6.6     6.5     6.5     6.5     6.6
 2017 069   120     8.5     8.4     8.3     8.1     7.9     7.7     7.6     7.5     7.5
 2017 070   121     8.4     8.4     8.2     8.0     7.8     7.7     7.5     7.4     7.4
 2017 071   122     5.8     5.8     5.7     5.6     5.5     5.4     5.4     5.5     5.7
 2017 072   123     2.6     2.6     2.6     2.6     2.6     2.7     2.8     3.1     3.5
 2017 073   124     0.9     0.9     0.9     1.0     1.1     1.2     1.4     1.8     2.3
 2017 074   125    -0.9    -0.8    -0.8    -0.7    -0.5    -0.3     0.0     0.5     1.1
 2017 075   126    -2.0    -2.0    -1.9    -1.7    -1.5    -1.3    -0.9    -0.3     0.3
 2017 076   127    -2.1    -2.1    -2.0    -1.9    -1.6    -1.4    -1.0    -0.4     0.2
 2017 077   128    -1.0    -0.9    -0.9    -0.8    -0.6    -0.4    -0.1     0.4     0.9
 2017 078   129     1.2     1.2     1.2     1.2     1.3     1.4     1.6     1.9     2.3
 2017 079   130     2.4     2.4     2.4     2.4     2.4     2.4     2.5     2.8     3.1
 2017 080   131     4.7     4.7     4.6     4.5     4.4     4.3     4.3     4.4     4.6
 2017 081   132     7.4     7.4     7.2     7.0     6.8     6.6     6.4     6.3     6.3
 2017 082   133     8.2     8.2     8.0     7.8     7.5     7.3     7.1     6.9     6.8
 2017 083   134     6.8     6.7     6.6     6.4     6.2     6.0     5.9     5.8     5.8
 2017 084   135     8.0     7.9     7.8     7.5     7.2     7.0     6.8     6.6     6.5
 2017 085   136    10.2    10.2     9.9     9.6     9.2     8.9     8.6     8.2     8.0
 2017 086   137    10.2    10.1     9.9     9.6     9.2     8.9     8.5     8.1     7.9
 2017 087   138    11.2    11.1    10.8    10.5    10.1     9.7     9.3     8.8     8.5
 2017 088   139    12.4    12.3    12.1    11.6    11.2    10.8    10.3     9.7     9.3
 2017 089   140    12.2    12.1    11.8    11.4    10.9    10.5    10.0     9.5     9.1
 2017 090   141     9.7     9.6     9.4     9.0     8.7     8.4     8.0     7.7     7.4
 2017 091   142     8.7     8.7     8.5     8.2     7.9     7.6     7.3     7.0     6.8
 2017 092   143     7.2     7.1     7.0     6.7     6.5     6.2     6.0     5.8     5.7
 2017 093   144     7.6     7.5     7.3     7.1     6.8     6.6     6.3     6.1     6.0
 2017 094   145     8.1     8.0     7.8     7.6     7.3     7.0     6.7     6.4     6.3
 2017 095   146     8.7     8.6     8.4     8.1     7.8     7.5     7.2     6.9     6.7
 2017 096   147     9.5     9.5     9.2     8.9     8.5     8.2     7.8     7.4     7.2
 2017 097   148     9.6     9.5     9.3     8.9     8.5     8.2     7.8     7.4     7.2
 2017 098   149     9.0     9.0     8.8     8.4     8.1     7.8     7.4     7.0     6.8
 2017 099   150     8.9     8.8     8.6     8.3     8.0     7.7     7.3     6.9     6.7
 2017 100   151    10.2    10.1     9.9     9.5     9.1     8.8     8.3     7.9     7.6
 2017 101   152    12.4    12.3    12.0    11.6    11.1    10.6    10.1     9.5     9.0
 2017 102   153    15.1    15.0    14.6    14.1    13.5    12.9    12.2    11.4    10.7
 2017 103   154    15.1    15.0    14.6    14.1    13.4    12.9    12.2    11.4    10.7
 2017 104   155    15.9    15.8    15.4    14.8    14.2    13.6    12.8    11.9    11.2
 2017 105   156    15.3    15.2    14.8    14.3    13.7    13.1    12.3    11.5    10.8
 2017 106   157    15.1    15.0    14.6    14.1    13.5    12.9    12.2    11.3    10.7
 2017 107   158    16.2    16.1    15.7    15.1    14.4    13.8    13.0    12.1    11.4
 2017 108   159    18.0    17.9    17.5    16.8    16.1    15.4    14.5    13.4    12.6
 2017 109   160    18.8    18.6    18.2    17.5    16.7    16.0    15.1    14.0    13.1
 2017 110   161    20.1    20.0    19.5    18.8    17.9    17.2    16.1    15.0    14.0
 2017 111   162    19.5    19.4    18.9    18.2    17.4    16.6    15.6    14.5    13.5
 2017 112   163    17.9    17.8    17.3    16.7    15.9    15.3    14.3    13.3    12.4
 2017 113   164    16.3    16.2    15.8    15.2    14.6    13.9    13.1    12.2    11.4
 2017 114   165    15.3    15.2    14.8    14.3    13.7    13.1    12.3    11.4    10.7
 2017 115   166    14.6    14.5    14.1    13.6    13.0    12.4    11.7    10.9    10.2
 2017 116   167    15.3    15.1    14.8    14.2    13.6    13.0    12.2    11.4    10.7
 2017 117   168    16.9    16.7    16.3    15.7    15.0    14.4    13.5    12.5    11.7
 2017 118   169    18.4    18.3    17.8    17.2    16.4    15.7    14.8    13.7    12.7
 2017 119   170    17.1    17.0    16.6    16.0    15.3    14.6    13.7    12.7    11.9
 2017 120   171    15.9    15.8    15.4    14.8    14.2    13.6    12.8    11.8    11.1
 2017 121   172    13.2    13.1    12.8    12.3    11.8    11.3    10.6     9.9     9.3
 2017 122   173    10.5    10.5    10.2     9.8     9.4     9.0     8.5     7.9     7.5
 2017 123   174     9.1     9.0     8.8     8.5     8.1     7.8     7.4     6.9     6.6
 2017 124   175     9.4     9.3     9.1     8.8     8.4     8.0     7.6     7.1     6.7
 2017 125   176     9.4     9.3     9.1     8.7     8.4     8.0     7.6     7.1     6.7
 2017 126   177    10.5    10.4    10.2     9.8     9.4     9.0     8.5     7.9     7.5
 2017 127   178    11.5    11.4    11.2    10.7    10.3     9.8     9.3     8.7     8.2
 2017 128   179    12.0    11.9    11.6    11.2    10.7    10.3     9.7     9.0     8.5
 2017 129   180    13.0    12.9    12.6    12.2    11.7    11.2    10.5     9.8     9.2
 2017 130   181    13.6    13.5    13.2    12.7    12.2    11.7    11.0    10.2     9.6
 2017 131   182    13.9    13.8    13.5    13.0    12.4    11.9    11.2    10.4     9.8
 2017 132   183    14.2    14.1    13.8    13.3    12.7    12.2    11.5    10.7    10.0
 2017 133   184    15.0    14.9    14.5    14.0    13.4    12.9    12.1    11.2    10.5
 2017 134   185    16.1    16.0    15.6    15.0    14.4    13.8    13.0    12.1    11.3
 2017 135   186    17.9    17.8    17.4    16.8    16.1    15.4    14.5    13.4    12.5
 2017 136   187    20.0    19.8    19.4    18.7    17.9    17.1    16.1    14.9    13.9
 2017 137   188    22.1    21.9    21.4    20.6    19.8    18.9    17.8    16.5    15.3
 2017 138   189    24.2    24.0    23.5    22.7    21.7    20.8    19.5    18.0    16.7
 2017 139   190    25.7    25.5    24.9    24.0    23.0    22.1    20.7    19.1    17.7
 2017 140   191    25.0    24.8    24.3    23.4    22.4    21.5    20.2    18.6    17.3
 2017 141   192    22.0    21.9    21.4    20.6    19.8    19.0    17.8    16.5    15.3
 2017 142   193    19.9    19.7    19.3    18.6    17.9    17.2    16.2    15.0    13.9
 2017 143   194    16.9    16.8    16.5    15.9    15.3    14.7    13.8    12.9    12.0
 2017 144   195    15.7    15.5    15.2    14.7    14.1    13.6    12.8    11.9    11.2
 2017 145   196    14.6    14.5    14.2    13.7    13.2    12.7    12.0    11.2    10.5
 2017 146   197    15.7    15.5    15.2    14.7    14.1    13.6    12.9    12.0    11.2
 2017 147   198    16.0    15.9    15.6    15.1    14.5    13.9    13.2    12.3    11.5
 2017 148   199    17.3    17.1    16.8    16.2    15.6    15.0    14.2    13.2    12.3
 2017 149   200    17.9    17.8    17.5    16.9    16.2    15.6    14.8    13.7    12.8
 2017 150   201    19.3    19.2    18.8    18.2    17.5    16.8    15.9    14.8    13.8
 2017 151   202    20.6    20.4    20.0    19.4    18.6    17.9    16.9    15.7    14.6
 2017 152   203    21.0    20.8    20.4    19.8    19.0    18.3    17.2    16.0    14.9
 2017 153   204    21.1    21.0    20.6    19.9    19.1    18.4    17.4    16.2    15.1
 2017 154   205    21.2    21.1    20.6    20.0    19.2    18.5    17.4    16.2    15.1
 2017 155   206    22.1    21.9    21.5    20.8    20.0    19.2    18.2    16.9    15.7
 2017 156   207    23.6    23.5    23.0    22.3    21.4    20.6    19.4    18.0    16.8
 2017 157   208    25.3    25.1    24.6    23.8    22.9    22.0    20.8    19.2    17.9
 2017 158   209    26.0    25.8    25.3    24.5    23.5    22.6    21.3    19.8    18.4
 2017 159   210    25.8    25.6    25.1    24.3    23.3    22.4    21.2    19.6    18.3
 2017 160   211    25.0    24.8    24.3    23.5    22.6    21.8    20.5    19.1    17.7
 2017 161   212    24.3    24.1    23.7    22.9    22.0    21.2    20.0    18.6    17.3
 2017 162   213    24.1    24.0    23.5    22.8    21.9    21.1    19.9    18.5    17.3
 2017 163   214    25.2    25.0    24.6    23.8    22.9    22.0    20.8    19.3    18.0
 2017 164   215    26.9    26.7    26.2    25.4    24.4    23.5    22.2    20.5    19.1
 2017 165   216    28.7    28.5    27.9    27.0    26.0    25.0    23.5    21.8    20.3
 2017 166   217    29.7    29.5    29.0    28.0    26.9    25.9    24.4    22.6    20.9
 2017 167   218    30.3    30.1    29.5    28.6    27.4    26.4    24.9    23.0    21.3
 2017 168   219    30.4    30.2    29.7    28.7    27.6    26.5    25.0    23.2    21.5
 2017 169   220    29.8    29.6    29.0    28.1    27.1    26.1    24.6    22.9    21.3
 2017 170   221    29.0    28.8    28.2    27.4    26.4    25.4    24.1    22.4    20.8
 2017 171   222    27.4    27.2    26.7    25.9    25.0    24.1    22.8    21.3    19.9
 2017 172   223    25.9    25.7    25.3    24.5    23.7    22.8    21.7    20.2    18.9
 2017 173   224    24.8    24.6    24.2    23.5    22.7    21.9    20.8    19.5    18.2
 2017 174   225    24.3    24.2    23.8    23.1    22.3    21.6    20.5    19.2    18.0
 2017 175   226    24.5    24.4    24.0    23.3    22.5    21.8    20.7    19.4    18.1
 2017 176   227    24.9    24.8    24.3    23.7    22.9    22.1    21.1    19.7    18.5
 2017 177   228    24.3    24.1    23.7    23.1    22.3    21.6    20.6    19.3    18.1
 2017 178   229    23.1    23.0    22.6    22.0    21.3    20.7    19.7    18.5    17.4
 2017 179   230    21.9    21.8    21.5    20.9    20.3    19.7    18.8    17.7    16.6
 2017 180   231    20.7    20.6    20.3    19.8    19.2    18.7    17.8    16.8    15.9
 2017 181   232    20.4    20.3    20.0    19.5    19.0    18.4    17.6    16.6    15.7
 2017 182   233    21.2    21.1    20.8    20.3    19.7    19.1    18.3    17.3    16.3
 2017 183   234    22.5    22.4    22.0    21.5    20.9    20.3    19.4    18.2    17.2
 2017 184   235    23.5    23.4    23.0    22.5    21.8    21.1    20.2    19.0    17.9
 2017 185   236    24.7    24.6    24.2    23.6    22.9    22.2    21.2    19.9    18.8
 2017 186   237    25.3    25.2    24.8    24.2    23.4    22.7    21.7    20.4    19.2
 2017 187   238    25.9    25.7    25.3    24.7    24.0    23.2    22.2    20.8    19.6
 2017 188   239    26.4    26.2    25.9    25.2    24.4    23.7    22.6    21.2    20.0
 2017 189   240    27.5    27.4    26.9    26.3    25.5    24.7    23.5    22.1    20.8
 2017 190   241    27.3    27.2    26.8    26.1    25.3    24.5    23.4    22.0    20.7
 2017 191   242    26.9    26.7    26.3    25.7    24.9    24.2    23.1    21.7    20.4
 2017 192   243    26.9    26.7    26.3    25.7    24.9    24.2    23.1    21.7    20.4
 2017 193   244    26.7    26.6    26.2    25.6    24.8    24.1    23.1    21.7    20.5
 2017 194   245    26.0    25.9    25.5    25.0    24.3    23.6    22.6    21.3    20.1
 2017 195   246    26.0    25.9    25.5    24.9    24.3    23.6    22.6    21.3    20.1
 2017 196   247    26.2    26.1    25.8    25.2    24.5    23.8    22.9    21.6    20.4
 2017 197   248    24.8    24.7    24.4    23.8    23.2    22.6    21.7    20.6    19.5
 2017 198   249    24.4    24.3    24.0    23.6    23.0    22.4    21.5    20.4    19.3
 2017 199   250    23.7    23.6    23.4    22.9    22.3    21.8    21.0    19.9    18.9
 2017 200   251    23.2    23.1    22.9    22.4    21.9    21.4    20.6    19.6    18.7
 2017 201   252    23.8    23.7    23.4    23.0    22.4    21.9    21.1    20.1    19.1
 2017 202   253    25.8    25.7    25.4    24.9    24.2    23.6    22.7    21.6    20.4
 2017 203   254    26.5    26.4    26.1    25.5    24.9    24.3    23.4    22.2    21.1
 2017 204   255    27.5    27.4    27.0    26.5    25.8    25.2    24.2    23.0    21.8
 2017 205   256    28.2    28.1    27.7    27.1    26.5    25.8    24.8    23.5    22.3
 2017 206   257    28.4    28.2    27.9    27.3    26.6    26.0    25.0    23.7    22.5
 2017 207   258    26.9    26.8    26.5    26.0    25.4    24.8    23.9    22.7    21.6
 2017 208   259    26.0    25.9    25.7    25.2    24.6    24.1    23.2    22.1    21.1
 2017 209   260    25.8    25.7    25.4    24.9    24.4    23.9    23.1    22.0    21.0
 2017 210   261    25.2    25.1    24.9    24.5    24.0    23.4    22.7    21.6    20.7
 2017 211   262    24.2    24.1    23.9    23.5    23.0    22.6    21.9    20.9    20.0
 2017 212   263    24.2    24.1    23.9    23.6    23.1    22.6    22.0    21.0    20.1
 2017 213   264    24.3    24.3    24.1    23.7    23.2    22.8    22.1    21.2    20.3
 2017 214   265    24.2    24.1    23.9    23.5    23.1    22.7    22.0    21.1    20.2
 2017 215   266    24.5    24.4    24.2    23.8    23.4    23.0    22.3    21.4    20.5
 2017 216   267    25.1    25.0    24.8    24.4    24.0    23.5    22.8    21.9    20.9
 2017 217   268    25.7    25.6    25.4    25.0    24.5    24.0    23.3    22.3    21.4
 2017 218   269    24.6    24.6    24.4    24.0    23.6    23.2    22.5    21.6    20.8
 2017 219   270    24.1    24.1    23.9    23.6    23.2    22.8    22.2    21.3    20.5
 2017 220   271    23.1    23.0    22.9    22.6    22.3    21.9    21.4    20.6    19.8
 2017 221   272    22.1    22.0    21.9    21.7    21.4    21.1    20.6    19.9    19.2
 2017 222   273    21.6    21.5    21.4    21.2    21.0    20.7    20.2    19.6    18.9
 2017 223   274    22.4    22.4    22.2    22.0    21.7    21.4    20.9    20.2    19.5
 2017 224   275    22.8    22.8    22.7    22.4    22.1    21.8    21.3    20.6    19.9
 2017 225   276    22.7    22.6    22.5    22.3    22.0    21.7    21.2    20.5    19.8
 2017 226   277    22.6    22.5    22.4    22.2    21.9    21.6    21.2    20.5    19.8
 2017 227   278    22.3    22.2    22.1    21.9    21.7    21.4    21.0    20.3    19.7
 2017 228   279    22.5    22.4    22.3    22.1    21.9    21.6    21.1    20.5    19.8
 2017 229   280    22.6    22.5    22.4    22.2    22.0    21.7    21.3    20.6    19.9
 2017 230   281    23.9    23.9    23.8    23.5    23.2    22.9    22.4    21.7    20.9
 2017 231   282    24.7    24.7    24.5    24.3    24.0    23.6    23.1    22.3    21.6
 2017 232   283    25.2    25.1    25.0    24.7    24.4    24.0    23.5    22.7    21.9
 2017 233   284    25.2    25.1    25.0    24.7    24.4    24.0    23.5    22.7    21.9
 2017 234   285    25.3    25.2    25.1    24.8    24.5    24.1    23.6    22.8    22.0
 2017 235   286    24.9    24.8    24.7    24.5    24.2    23.8    23.3    22.6    21.9
 2017 236   287    24.3    24.3    24.2    24.0    23.7    23.4    22.9    22.3    21.6
 2017 237   288    23.8    23.8    23.7    23.5    23.3    23.0    22.6    21.9    21.3
 2017 238   289    22.9    22.9    22.8    22.7    22.5    22.3    21.9    21.3    20.7
 2017 239   290    21.8    21.8    21.7    21.6    21.5    21.3    21.0    20.5    20.0
 2017 240   291    20.9    20.9    20.8    20.8    20.7    20.6    20.3    19.9    19.5
 2017 241   292    20.7    20.7    20.7    20.7    20.6    20.5    20.3    19.9    19.4
 2017 242   293    20.9    20.9    20.9    20.9    20.8    20.7    20.5    20.1    19.6
 2017 243   294    21.4    21.4    21.3    21.3    21.2    21.1    20.8    20.4    20.0
 2017 244   295    21.9    21.9    21.9    21.8    21.7    21.6    21.3    20.9    20.4
 2017 245   296    21.6    21.6    21.6    21.5    21.4    21.3    21.1    20.7    20.2
 2017 246   297    20.8    20.8    20.8    20.8    20.7    20.6    20.5    20.1    19.7
 2017 247   298    20.3    20.3    20.3    20.3    20.3    20.3    20.1    19.8    19.5
 2017 248   299    20.8    20.8    20.8    20.8    20.8    20.7    20.5    20.2    19.8
 2017 249   300    20.7    20.7    20.7    20.7    20.7    20.6    20.5    20.2    19.8
 2017 250   301    20.2    20.2    20.2    20.2    20.2    20.2    20.1    19.8    19.5
 2017 251   302    19.7    19.7    19.8    19.8    19.9    19.9    19.8    19.6    19.3
 2017 252   303    19.3    19.4    19.4    19.5    19.5    19.6    19.5    19.3    19.0
 2017 253   304    18.4    18.4    18.5    18.6    18.7    18.8    18.8    18.7    18.5
 2017 254   305    17.7    17.7    17.8    18.0    18.1    18.2    18.3    18.2    18.1
 2017 255   306    17.9    18.0    18.1    18.2    18.4    18.4    18.5    18.4    18.3
 2017 256   307    18.8    18.8    18.9    19.0    19.1    19.2    19.2    19.1    18.8
 2017 257   308    19.5    19.5    19.6    19.7    19.8    19.8    19.8    19.6    19.3
 2017 258   309    20.0    20.0    20.1    20.1    20.2    20.2    20.2    20.0    19.7
 2017 259   310    20.8    20.8    20.9    20.9    21.0    20.9    20.8    20.6    20.3
 2017 260   311    22.3    22.3    22.3    22.3    22.3    22.2    22.0    21.7    21.2
 2017 261   312    23.7    23.7    23.7    23.6    23.5    23.4    23.1    22.7    22.1
 2017 262   313    24.0    24.0    24.0    23.9    23.8    23.6    23.4    22.9    22.3
 2017 263   314    24.3    24.3    24.3    24.2    24.1    23.9    23.7    23.2    22.6
 2017 264   315    24.5    24.5    24.5    24.4    24.3    24.1    23.8    23.4    22.8
 2017 265   316    25.2    25.2    25.2    25.1    24.9    24.7    24.4    23.9    23.3
 2017 266   317    25.8    25.8    25.7    25.6    25.4    25.2    24.8    24.3    23.6
 2017 267   318    27.1    27.1    27.0    26.8    26.6    26.3    25.9    25.2    24.5
 2017 268   319    28.2    28.2    28.1    27.8    27.6    27.3    26.7    26.0    25.2
 2017 269   320    29.0    29.0    28.8    28.6    28.3    27.9    27.4    26.6    25.7
 2017 270   321    28.9    28.8    28.7    28.5    28.2    27.8    27.3    26.5    25.7
 2017 271   322    28.4    28.4    28.3    28.1    27.8    27.5    27.0    26.2    25.4
 2017 272   323    26.1    26.1    26.0    25.9    25.7    25.5    25.2    24.6    24.0
 2017 273   324    24.0    24.0    24.0    24.0    23.9    23.8    23.6    23.2    22.7
 2017 274   325    21.7    21.8    21.8    21.9    21.9    21.9    21.9    21.7    21.3
 2017 275   326    19.4    19.4    19.5    19.7    19.9    20.0    20.1    20.1    19.9
 2017 276   327    17.7    17.8    17.9    18.2    18.4    18.6    18.8    18.9    18.9
 2017 277   328    19.0    19.0    19.2    19.4    19.6    19.7    19.8    19.8    19.7
 2017 278   329    19.8    19.8    20.0    20.1    20.3    20.4    20.5    20.4    20.2
 2017 279   330    20.6    20.6    20.7    20.9    21.0    21.0    21.1    21.0    20.8
 2017 280   331    21.6    21.6    21.7    21.8    21.9    21.9    21.9    21.7    21.4
 2017 281   332    21.7    21.7    21.8    21.9    21.9    22.0    21.9    21.8    21.5
 2017 282   333    20.7    20.7    20.8    20.9    21.1    21.1    21.2    21.1    20.9
 2017 283   334    20.3    20.3    20.4    20.6    20.7    20.8    20.9    20.9    20.7
 2017 284   335    20.6    20.7    20.8    20.9    21.0    21.1    21.2    21.1    21.0
 2017 285   336    19.4    19.5    19.6    19.8    20.0    20.1    20.2    20.3    20.2
 2017 286   337    18.4    18.5    18.6    18.8    19.0    19.2    19.4    19.6    19.6
 2017 287   338    17.2    17.3    17.5    17.7    18.0    18.2    18.5    18.8    18.9
 2017 288   339    16.7    16.7    16.9    17.2    17.5    17.8    18.1    18.4    18.5
