*Soil Inorganic Nitrogen daily output file

*DSSAT Cropping System Model Ver. 4.6.1.000 -release      APR 22, 2019; 09:45:14
                                                                                
*RUN   1        : Sim1                      MZCER046 UINT1601    1              
 MODEL          : MZCER046 - Maize                                              
 EXPERIMENT     : UINT1601 MZ N TRACK                                           
 DATA PATH      :                                                               
 TREATMENT  1   : Sim1                      MZCER046                            
  
!                                                            NO3 (ppm) by soil depth (cm):                                   NH4 (ppm) by soil depth (cm):
!                                                            0-5    5-15   15-30   30-45   45-60   60-90  90-120 120-150     0-5    5-15   15-30   30-45   45-60   60-90  90-120 120-150
@YEAR DOY   DAS  NAPC  NI#M    NLCC   NIAD   NITD   NHTD    NI1D    NI2D    NI3D    NI4D    NI5D    NI6D    NI7D    NI8D    NH1D    NH2D    NH3D    NH4D    NH5D    NH6D    NH7D    NH8D    NMNC    NITC    NDNC    NIMC    AMLC   NNMNC    NUCM
 2016 315     0     0     0     0.0  153.1   56.4   96.8    5.20    5.20    3.13    2.10    2.10    2.10    2.10    2.10    5.40    5.40    4.53    4.10    4.10    4.10    4.10    4.10    0.00    0.00    0.00    0.00    0.00    0.00    0.00
 2016 316     1     0     0     0.1  153.0   69.5   83.5    5.77    5.78    3.66    2.61    2.70    2.70    2.71    2.67    4.85    4.81    4.00    3.59    3.50    3.50    3.48    3.52    0.31   13.26    0.00    0.28    0.00    0.03    0.00
 2016 317     2     0     0     0.3  152.9   80.9   72.0    6.67    6.22    4.10    3.05    3.21    3.20    3.24    3.16    4.37    4.29    3.54    3.15    2.99    2.98    2.94    3.01    0.62   24.81    0.00    0.56    0.00    0.06    0.00
 2016 318     3     0     0     0.5  152.7   91.1   61.6    7.60    6.62    4.50    3.45    3.66    3.65    3.69    3.59    3.91    3.80    3.11    2.75    2.54    2.52    2.46    2.55    0.94   35.22    0.00    0.85    0.00    0.09    0.00
 2016 319     4     0     0     0.7  152.6   99.5   53.0    8.41    6.96    4.83    3.79    4.02    4.02    4.06    3.95    3.52    3.39    2.75    2.41    2.17    2.14    2.07    2.17    1.24   43.83    0.00    1.12    0.00    0.12    0.00
 2016 320     5     0     0     0.9  152.4  106.5   45.9    9.17    7.23    5.10    4.07    4.31    4.31    4.36    4.25    3.19    3.05    2.45    2.13    1.87    1.83    1.75    1.85    1.52   50.97    0.03    1.37    0.00    0.15    0.00
 2016 321     6     0     1     1.1  152.2  112.4   39.8    9.96    7.46    5.34    4.31    4.56    4.56    4.60    4.50    2.89    2.74    2.18    1.88    1.61    1.56    1.47    1.57    1.79   57.16    0.05    1.61    0.00    0.18    0.00
 2016 322     7     0     1     1.2  152.0  117.6   34.4   10.74    7.66    5.55    4.53    4.78    4.77    4.81    4.71    2.62    2.46    1.95    1.66    1.39    1.33    1.24    1.33    2.06   62.58    0.08    1.85    0.00    0.21    0.00
 2016 323     8     0     1     1.4  151.8  121.9   29.9   11.48    7.82    5.73    4.71    4.96    4.95    4.98    4.88    2.38    2.22    1.74    1.48    1.20    1.14    1.04    1.13    2.32   67.09    0.10    2.08    0.00    0.24    0.00
 2016 324     9     0     1     1.6  151.7  126.0   25.7   12.26    7.98    5.89    4.89    5.12    5.11    5.13    5.03    2.15    1.98    1.54    1.30    1.03    0.97    0.87    0.95    2.60   71.32    0.13    2.33    0.00    0.26    0.00
 2016 325    10     0     1     1.7  151.5  130.0   21.5   13.15    8.14    6.07    5.07    5.28    5.26    5.27    5.18    1.90    1.73    1.33    1.11    0.86    0.79    0.70    0.77    2.93   75.54    0.15    2.63    0.00    0.30    0.00
 2016 326    11     0     1     1.9  151.4  133.5   17.9   13.93    8.29    6.23    5.23    5.42    5.39    5.39    5.30    1.66    1.50    1.15    0.95    0.71    0.65    0.56    0.62    3.28   79.20    0.17    2.95    0.00    0.33    0.00
 2016 327    12     0     1     2.0  151.3  136.0   15.3   14.29    8.43    6.36    5.35    5.53    5.49    5.47    5.39    1.49    1.33    1.01    0.83    0.60    0.54    0.46    0.51    3.57   81.85    0.19    3.21    0.00    0.36    0.00
 2016 328    13     0     1     2.2  151.2  137.8   13.4   14.57    8.54    6.45    5.44    5.60    5.56    5.53    5.45    1.36    1.21    0.91    0.74    0.53    0.47    0.39    0.44    3.79   83.77    0.21    3.41    0.00    0.39    0.00
 2016 329    14     0     1     2.2  151.1  139.2   11.9   14.90    8.63    6.51    5.50    5.65    5.61    5.57    5.50    1.27    1.11    0.83    0.67    0.47    0.41    0.33    0.38    3.97   85.21    0.22    3.56    0.00    0.41    0.00
 2016 330    15     0     1     2.3  151.0  140.1   11.0   15.10    8.70    6.55    5.54    5.69    5.64    5.60    5.54    1.26    1.05    0.78    0.62    0.43    0.37    0.30    0.33    4.11   86.21    0.23    3.69    0.00    0.42    0.00
 2016 331    16     0     1     2.4  151.0  140.8   10.2   15.33    8.74    6.57    5.58    5.72    5.67    5.62    5.56    1.25    0.99    0.73    0.58    0.40    0.34    0.27    0.30    4.21   87.02    0.24    3.77    0.00    0.44    0.00
 2016 332    17     0     1     2.5  150.9  141.4    9.4   15.41    8.81    6.60    5.61    5.74    5.69    5.63    5.58    1.25    0.94    0.69    0.55    0.37    0.31    0.24    0.26    4.32   87.78    0.25    3.87    0.00    0.45    0.00
 2016 333    18     0     1     2.5  150.8  142.1    8.7   15.56    8.86    6.63    5.64    5.77    5.72    5.65    5.59    1.24    0.89    0.65    0.51    0.33    0.28    0.21    0.23    4.45   88.52    0.26    3.98    0.00    0.47    0.00
 2016 334    19     0     1     2.6  150.8  142.8    8.0   10.71   11.45    6.65    5.67    5.80    5.74    5.66    5.61    1.23    0.83    0.60    0.47    0.31    0.25    0.19    0.21    4.59   89.24    0.27    4.11    0.00    0.48    0.00
 2016 335    20     0     1     2.6  150.7  143.4    7.3    7.58   12.10    7.37    5.70    5.82    5.76    5.68    5.63    1.23    0.77    0.56    0.44    0.28    0.22    0.16    0.18    4.81   89.90    0.28    4.33    0.00    0.49    0.00
 2016 336    21     0     1     2.7  150.6  143.8    6.8    7.84   11.95    7.48    5.73    5.84    5.78    5.69    5.64    1.23    0.76    0.52    0.40    0.25    0.20    0.14    0.16    4.97   90.45    0.29    4.47    0.00    0.50    0.00
 2016 337    22     0     1     2.8  150.6  144.3    6.3    8.10   11.81    7.57    5.76    5.86    5.80    5.69    5.65    1.24    0.74    0.48    0.37    0.23    0.18    0.13    0.14    5.16   90.99    0.30    4.65    0.00    0.51    0.00
 2016 338    23     0     1     2.8  150.5  144.7    5.8    8.21   11.71    7.67    5.79    5.88    5.82    5.70    5.66    1.24    0.73    0.45    0.34    0.20    0.16    0.11    0.12    5.35   91.46    0.31    4.82    0.00    0.53    0.00
 2016 339    24     0     1     2.9  150.5  145.1    5.4    8.35   11.61    7.76    5.81    5.89    5.83    5.71    5.66    1.23    0.71    0.41    0.31    0.19    0.14    0.10    0.11    5.54   91.87    0.32    5.00    0.00    0.54    0.00
 2016 340    25     0     1     2.9  150.4  145.4    5.1    8.46   11.55    7.82    5.83    5.91    5.85    5.72    5.67    1.23    0.70    0.38    0.29    0.17    0.13    0.08    0.09    5.72   92.24    0.32    5.17    0.00    0.55    0.00
 2016 341    26     0     1     3.0  150.4  145.6    4.8    8.53   11.46    7.90    5.85    5.92    5.86    5.72    5.68    1.23    0.69    0.36    0.27    0.15    0.11    0.08    0.08    5.87   92.53    0.33    5.30    0.00    0.57    0.00
 2016 342    27     0     1     3.0  150.4  145.8    4.5    8.59   11.38    7.97    5.86    5.93    5.87    5.72    5.68    1.23    0.68    0.34    0.25    0.14    0.11    0.07    0.07    6.00   92.78    0.33    5.42    0.00    0.58    0.00
 2016 343    28     0     1     3.0  150.3  146.0    4.3    8.63   11.32    8.04    5.88    5.94    5.87    5.73    5.68    1.23    0.67    0.32    0.24    0.13    0.10    0.06    0.07    6.12   93.00    0.34    5.53    0.00    0.59    0.00
 2016 344    29     0     1     3.1  150.3  146.2    4.1    8.68   11.25    8.10    5.89    5.95    5.88    5.73    5.68    1.22    0.66    0.31    0.22    0.13    0.09    0.06    0.06    6.23   93.20    0.34    5.64    0.00    0.60    0.00
 2016 345    30     0     1     3.1  150.3  146.3    4.0    8.72   11.19    8.16    5.90    5.95    5.88    5.74    5.68    1.22    0.65    0.29    0.21    0.12    0.08    0.05    0.06    6.33   93.37    0.35    5.73    0.00    0.60    0.00
 2016 346    31     0     1     3.1  150.3  146.4    3.8    8.76   11.13    8.21    5.91    5.96    5.89    5.74    5.67    1.21    0.64    0.28    0.20    0.11    0.08    0.05    0.05    6.43   93.53    0.35    5.81    0.00    0.61    0.00
 2016 347    32     0     1     3.1  150.3  146.6    3.7    8.81   11.08    8.26    5.91    5.96    5.89    5.74    5.67    1.21    0.63    0.27    0.19    0.10    0.07    0.04    0.05    6.51   93.66    0.35    5.89    0.00    0.62    0.00
 2016 348    33     0     1     3.2  150.2  146.7    3.6    8.86   11.03    8.31    5.92    5.97    5.90    5.75    5.67    1.20    0.62    0.26    0.19    0.10    0.07    0.04    0.04    6.59   93.79    0.35    5.96    0.00    0.63    0.00
 2016 349    34     0     1     3.2  150.2  146.8    3.5    8.92   10.98    8.35    5.93    5.97    5.90    5.75    5.67    1.20    0.61    0.25    0.18    0.09    0.06    0.04    0.04    6.66   93.91    0.35    6.03    0.00    0.64    0.00
 2016 350    35     0     1     3.2  150.2  146.8    3.4    8.96   10.94    8.39    5.93    5.97    5.90    5.75    5.67    1.19    0.61    0.24    0.17    0.09    0.06    0.04    0.04    6.74   94.02    0.35    6.09    0.00    0.64    0.00
 2016 351    36     0     1     3.2  150.2  146.9    3.3    9.01   10.90    8.42    5.94    5.98    5.91    5.75    5.67    1.18    0.60    0.23    0.16    0.09    0.06    0.03    0.03    6.80   94.12    0.35    6.15    0.00    0.65    0.00
 2016 352    37     0     1     3.2  150.2  147.0    3.2    9.05   10.86    8.46    5.94    5.98    5.91    5.75    5.67    1.18    0.59    0.23    0.16    0.08    0.05    0.03    0.03    6.86   94.21    0.35    6.20    0.00    0.66    0.00
 2016 353    38     0     1     3.2  150.2  147.1    3.1    9.10   10.83    8.48    5.95    5.98    5.91    5.75    5.67    1.17    0.59    0.22    0.15    0.08    0.05    0.03    0.03    6.91   94.29    0.35    6.25    0.00    0.66    0.00
 2016 354    39     0     1     3.2  150.2  147.2    3.1    9.16   10.79    8.51    5.95    5.98    5.91    5.76    5.67    1.16    0.58    0.21    0.15    0.08    0.05    0.03    0.03    6.96   94.37    0.35    6.30    0.00    0.67    0.00
 2016 355    40     0     1     3.2  150.2  147.3    3.0    9.21   10.76    8.54    5.95    5.99    5.91    5.76    5.67    1.16    0.57    0.21    0.14    0.07    0.05    0.03    0.03    7.01   94.44    0.35    6.34    0.00    0.67    0.00
 2016 356    41     0     1     3.2  150.2  147.3    2.9    9.26   10.73    8.56    5.96    5.99    5.91    5.76    5.68    1.15    0.57    0.20    0.14    0.07    0.05    0.03    0.03    7.06   94.51    0.35    6.38    0.00    0.68    0.00
 2016 357    42     0     1     3.2  150.2  147.4    2.9    9.31   10.71    8.58    5.96    5.99    5.92    5.76    5.68    1.14    0.56    0.20    0.13    0.07    0.04    0.02    0.02    7.11   94.58    0.35    6.42    0.00    0.68    0.00
 2016 358    43     0     1     3.2  150.3  147.5    2.8    9.33   10.71    8.60    5.96    5.99    5.92    5.76    5.68    1.14    0.56    0.19    0.13    0.06    0.04    0.02    0.02    7.16   94.65    0.35    6.47    0.00    0.69    0.00
 2016 359    44     0     1     3.2  150.3  147.5    2.7    9.39   10.67    8.63    5.96    5.99    5.92    5.76    5.68    1.13    0.55    0.18    0.13    0.06    0.04    0.02    0.02    7.21   94.71    0.35    6.52    0.00    0.70    0.00
 2016 360    45     0     1     3.2  150.3  147.6    2.7    8.58   11.06    8.66    5.97    5.99    5.92    5.76    5.68    1.13    0.54    0.18    0.12    0.06    0.04    0.02    0.02    7.28   94.78    0.35    6.57    0.00    0.70    0.00
 2016 361    46     0     1     3.2  150.3  147.7    2.6    7.95   11.34    8.71    5.97    5.99    5.92    5.76    5.68    1.13    0.53    0.17    0.12    0.06    0.04    0.02    0.02    7.35   94.85    0.35    6.64    0.00    0.71    0.00
 2016 362    47     0     1     3.2  150.3  147.7    2.5    6.89   11.31    9.11    5.97    5.99    5.92    5.76    5.68    1.13    0.53    0.16    0.11    0.05    0.03    0.02    0.02    7.43   94.92    0.35    6.71    0.00    0.72    0.00
 2016 363    48     0     1     3.2  150.3  147.8    2.5    7.09   11.18    9.17    5.97    5.99    5.92    5.76    5.68    1.14    0.52    0.16    0.10    0.05    0.03    0.02    0.02    7.52   94.99    0.35    6.79    0.00    0.73    0.00
 2016 364    49     0     1     3.2  150.3  147.9    2.4    7.29   11.06    9.23    5.97    5.99    5.92    5.76    5.68    1.14    0.52    0.15    0.10    0.05    0.03    0.02    0.01    7.63   95.07    0.35    6.89    0.00    0.74    0.00
 2016 365    50     0     1     3.2  150.3  148.0    2.4    7.33   10.97    9.30    5.98    5.99    5.92    5.76    5.68    1.14    0.51    0.14    0.09    0.04    0.03    0.01    0.01    7.74   95.14    0.35    6.98    0.00    0.76    0.00
 2016 366    51     0     1     3.2  150.3  148.0    2.3    7.49   10.88    9.36    5.98    5.99    5.92    5.76    5.68    1.14    0.51    0.13    0.09    0.04    0.02    0.01    0.01    7.86   95.22    0.36    7.09    0.00    0.77    0.00
 2017 001    52     0     1     3.2  150.3  148.1    2.3    7.55   10.80    9.41    5.98    5.99    5.92    5.76    5.68    1.14    0.50    0.13    0.08    0.04    0.02    0.01    0.01    7.97   95.28    0.36    7.19    0.00    0.78    0.00
 2017 002    53     0     1     3.2  150.4  148.2    2.2    7.64   10.72    9.46    5.98    5.99    5.92    5.75    5.68    1.13    0.50    0.12    0.08    0.04    0.02    0.01    0.01    8.08   95.34    0.36    7.28    0.00    0.80    0.00
 2017 003    54     0     1     3.2  150.4  148.2    2.2    7.71   10.65    9.51    5.98    5.99    5.92    5.75    5.68    1.13    0.49    0.12    0.07    0.03    0.02    0.01    0.01    8.17   95.40    0.36    7.36    0.00    0.81    0.00
 2017 004    55     0     1     3.2  150.4  148.3    2.1    7.82   10.59    9.55    5.98    5.99    5.92    5.75    5.67    1.12    0.48    0.11    0.07    0.03    0.02    0.01    0.01    8.27   95.46    0.36    7.45    0.00    0.82    0.00
 2017 005    56     0     1     3.2  150.4  148.3    2.1    7.94   10.53    9.58    5.98    5.99    5.92    5.75    5.67    1.12    0.48    0.11    0.07    0.03    0.02    0.01    0.01    8.37   95.51    0.36    7.54    0.00    0.83    0.00
 2017 006    57     0     1     3.2  150.4  148.4    2.0    8.03   10.48    9.59    6.01    5.99    5.92    5.75    5.67    1.11    0.47    0.10    0.06    0.03    0.02    0.01    0.01    8.48   95.56    0.36    7.63    0.00    0.85    0.00
 2017 007    58     0     1     3.2  150.4  148.4    2.0    8.08   10.43    9.59    6.05    5.99    5.92    5.75    5.67    1.11    0.47    0.10    0.06    0.03    0.02    0.01    0.01    8.56   95.61    0.36    7.71    0.00    0.86    0.00
 2017 008    59     0     1     3.2  150.4  148.5    2.0    8.13   10.38    9.59    6.08    5.99    5.92    5.75    5.67    1.10    0.46    0.10    0.06    0.03    0.02    0.01    0.01    8.64   95.66    0.36    7.77    0.00    0.87    0.00
 2017 009    60     0     1     3.2  150.4  148.5    1.9    8.17   10.34    9.59    6.12    5.99    5.92    5.75    5.67    1.10    0.46    0.09    0.06    0.03    0.02    0.01    0.01    8.70   95.69    0.36    7.83    0.00    0.87    0.00
 2017 010    61     0     1     3.2  150.4  148.5    1.9    8.22   10.30    9.58    6.14    5.99    5.92    5.75    5.67    1.09    0.45    0.09    0.06    0.02    0.01    0.01    0.01    8.75   95.72    0.36    7.87    0.00    0.88    0.00
 2017 011    62     0     1     3.2  150.4  148.6    1.9    8.25   10.28    9.60    6.14    5.99    5.92    5.75    5.67    1.09    0.45    0.09    0.05    0.02    0.01    0.01    0.01    8.79   95.76    0.36    7.90    0.00    0.89    0.00
 2017 012    63     0     1     3.2  150.4  148.6    1.9    7.89   10.47    9.63    6.14    5.99    5.91    5.75    5.67    1.08    0.45    0.09    0.05    0.02    0.01    0.01    0.01    8.84   95.78    0.36    7.95    0.00    0.89    0.00
 2017 013    64     0     1     3.2  150.5  148.6    1.8    7.81   10.55    9.64    6.14    5.98    5.91    5.75    5.67    1.08    0.44    0.09    0.05    0.02    0.01    0.01    0.01    8.91   95.81    0.36    8.00    0.00    0.90    0.00
 2017 014    65     0     1     3.2  150.5  148.6    1.8    7.90   10.48    9.62    6.20    5.98    5.91    5.74    5.67    1.08    0.44    0.09    0.05    0.02    0.01    0.01    0.01    8.98   95.84    0.36    8.07    0.00    0.91    0.00
 2017 015    66     0     1     3.2  150.5  148.7    1.8    7.95   10.41    9.61    6.26    5.98    5.91    5.74    5.67    1.09    0.43    0.08    0.05    0.02    0.01    0.01    0.01    9.06   95.87    0.36    8.14    0.00    0.92    0.00
 2017 016    67     0     1     3.2  150.5  148.7    1.8    7.98   10.35    9.60    6.32    5.98    5.91    5.74    5.67    1.09    0.43    0.08    0.04    0.02    0.01    0.01    0.01    9.16   95.90    0.36    8.22    0.00    0.93    0.00
 2017 017    68     0     1     3.2  150.5  148.7    1.8    8.01   10.29    9.59    6.37    5.98    5.91    5.74    5.67    1.08    0.42    0.08    0.04    0.02    0.01    0.01    0.01    9.24   95.93    0.36    8.30    0.00    0.94    0.00
 2017 018    69     0     1     3.2  150.5  148.8    1.7    4.15    8.61   11.01    7.36    5.98    5.91    5.74    5.67    1.08    0.42    0.08    0.04    0.02    0.01    0.01    0.01    9.32   95.96    0.36    8.37    0.00    0.95    0.00
 2017 019    70     0     1     3.2  150.5  148.8    1.7    4.23    8.53   10.88    7.54    5.98    5.90    5.74    5.67    1.09    0.42    0.08    0.04    0.02    0.01    0.01    0.01    9.38   95.98    0.36    8.41    0.00    0.97    0.00
 2017 020    71     0     1     3.2  150.5  148.8    1.7    4.31    8.45   10.75    7.71    5.97    5.90    5.74    5.66    1.09    0.42    0.08    0.04    0.02    0.01    0.01    0.01    9.45   96.00    0.36    8.47    0.00    0.98    0.00
 2017 021    72     0     1     3.2  150.6  148.8    1.7    3.98    8.37   10.83    7.81    5.97    5.90    5.74    5.66    1.09    0.42    0.08    0.04    0.02    0.01    0.01    0.01    9.53   96.02    0.36    8.54    0.00    1.00    0.00
 2017 022    73     0     1     3.2  150.6  148.8    1.7    4.09    8.31   10.75    7.91    5.97    5.90    5.74    5.66    1.09    0.42    0.08    0.03    0.01    0.01    0.01    0.01    9.62   96.04    0.36    8.61    0.00    1.01    0.00
 2017 023    74     0     1     3.2  150.6  148.9    1.7    4.30    8.24   10.61    8.07    5.97    5.90    5.73    5.66    1.10    0.42    0.08    0.03    0.01    0.01    0.01    0.01    9.73   96.07    0.36    8.69    0.00    1.04    0.00
 2017 024    75     0     1     3.2  150.6  148.9    1.7    4.53    8.19   10.53    8.15    5.96    5.89    5.73    5.66    1.10    0.42    0.08    0.03    0.01    0.01    0.01    0.01    9.86   96.10    0.36    8.80    0.00    1.06    0.00
 2017 025    76     0     1     3.2  150.6  148.9    1.7    4.66    8.13   10.42    8.29    5.96    5.89    5.73    5.65    1.11    0.42    0.08    0.03    0.01    0.01    0.01    0.01   10.01   96.13    0.36    8.92    0.00    1.09    0.00
 2017 026    77     0     1     3.2  150.7  149.0    1.7    4.67    8.16   10.35    8.36    5.95    5.89    5.73    5.65    1.11    0.42    0.08    0.03    0.01    0.01    0.01    0.01   10.17   96.16    0.36    9.05    0.00    1.12    0.00
 2017 027    78     0     1     3.2  150.7  149.0    1.7    4.76    8.12   10.30    8.44    5.95    5.88    5.72    5.65    1.12    0.42    0.08    0.03    0.01    0.01    0.00    0.01   10.30   96.19    0.36    9.16    0.00    1.14    0.00
 2017 028    79     0     1     3.2  150.7  149.0    1.7    4.86    8.06   10.19    8.43    6.09    5.88    5.72    5.65    1.12    0.42    0.08    0.03    0.01    0.01    0.00    0.01   10.43   96.21    0.36    9.26    0.00    1.17    0.00
 2017 029    80     0     1     3.2  150.7  149.0    1.7    4.90    8.00   10.10    8.43    6.21    5.88    5.72    5.65    1.12    0.42    0.08    0.03    0.01    0.01    0.00    0.01   10.54   96.24    0.36    9.35    0.00    1.19    0.00
 2017 030    81     0     1     3.2  150.8  149.1    1.7    4.94    7.95   10.01    8.43    6.33    5.88    5.72    5.65    1.13    0.42    0.08    0.03    0.01    0.01    0.00    0.01   10.63   96.26    0.36    9.42    0.00    1.21    0.00
 2017 031    82     0     1     3.2  150.8  149.1    1.7    4.99    7.91    9.93    8.42    6.45    5.88    5.72    5.65    1.13    0.42    0.08    0.03    0.01    0.01    0.00    0.01   10.71   96.28    0.36    9.49    0.00    1.22    0.00
 2017 032    83     0     1     3.2  150.8  149.1    1.7    5.03    7.86    9.85    8.42    6.55    5.88    5.72    5.65    1.12    0.42    0.08    0.03    0.01    0.01    0.00    0.00   10.79   96.30    0.36    9.55    0.00    1.24    0.00
 2017 033    84     0     1     3.2  150.8  149.1    1.7    5.15    7.82    9.77    8.41    6.62    5.89    5.72    5.65    1.12    0.41    0.08    0.03    0.01    0.01    0.00    0.00   10.86   96.32    0.36    9.61    0.00    1.25    0.00
 2017 034    85     0     1     3.2  150.8  149.1    1.7    5.31    7.78    9.69    8.40    6.62    5.93    5.72    5.64    1.12    0.41    0.08    0.02    0.01    0.01    0.00    0.00   10.94   96.35    0.36    9.67    0.00    1.27    0.00
 2017 035    86     0     1     3.2  150.8  149.2    1.7    5.40    7.75    9.63    8.40    6.63    5.97    5.71    5.64    1.12    0.41    0.08    0.02    0.01    0.01    0.00    0.00   11.03   96.37    0.36    9.74    0.00    1.29    0.00
 2017 036    87     0     1     3.2  150.8  149.2    1.7    5.45    7.72    9.57    8.39    6.63    5.97    5.74    5.65    1.11    0.41    0.08    0.02    0.01    0.01    0.00    0.00   11.11   96.39    0.36    9.81    0.00    1.30    0.00
 2017 037    88     0     1     3.4  150.7  149.0    1.6    5.52    7.69    9.51    8.39    6.63    5.97    5.73    5.65    1.11    0.41    0.08    0.02    0.01    0.01    0.00    0.00   11.19   96.42    0.36    9.87    0.00    1.32    0.00
 2017 038    89     0     1     3.4  150.7  149.1    1.6    5.59    7.67    9.48    8.43    6.63    5.97    5.73    5.65    1.10    0.41    0.08    0.02    0.01    0.01    0.00    0.00   11.27   96.44    0.36    9.94    0.00    1.33    0.00
 2017 039    90     0     1     3.4  150.7  149.1    1.6    4.05    7.69    9.93    8.50    6.63    5.96    5.73    5.64    1.10    0.40    0.08    0.02    0.01    0.01    0.00    0.00   11.35   96.47    0.36   10.00    0.00    1.35    0.00
 2017 040    91     0     1     3.4  150.7  149.1    1.6    4.30    7.64    9.87    8.54    6.63    5.96    5.73    5.64    1.10    0.41    0.08    0.02    0.01    0.01    0.00    0.00   11.42   96.48    0.36   10.05    0.00    1.36    0.00
 2017 041    92     0     1     3.5  150.6  149.0    1.6    4.52    7.58    9.76    8.51    6.63    5.97    5.73    5.65    1.10    0.41    0.08    0.02    0.01    0.01    0.00    0.00   11.51   96.50    0.36   10.12    0.00    1.38    0.00
 2017 042    93     0     1     3.8  150.4  148.7    1.6    4.56    7.52    9.68    8.50    6.64    5.97    5.73    5.65    1.11    0.41    0.08    0.02    0.01    0.01    0.00    0.00   11.60   96.52    0.36   10.19    0.00    1.40    0.00
 2017 043    94     0     1     3.8  150.4  148.7    1.6    4.61    7.49    9.64    8.55    6.64    5.97    5.73    5.64    1.11    0.41    0.07    0.02    0.01    0.01    0.00    0.00   11.69   96.54    0.36   10.27    0.00    1.42    0.00
 2017 044    95     0     1     4.0  150.2  148.5    1.6    4.78    7.44    9.55    8.53    6.64    5.97    5.73    5.64    1.11    0.41    0.07    0.02    0.01    0.01    0.00    0.00   11.79   96.56    0.36   10.35    0.00    1.44    0.00
 2017 045    96     0     1     4.0  150.2  148.6    1.6    5.05    7.41    9.50    8.55    6.64    5.96    5.72    5.64    1.11    0.41    0.07    0.02    0.01    0.01    0.00    0.00   11.89   96.59    0.36   10.43    0.00    1.47    0.00
 2017 046    97     0     1     4.1  150.2  148.5    1.6    5.30    7.37    9.41    8.53    6.64    5.97    5.73    5.64    1.10    0.41    0.07    0.02    0.01    0.01    0.00    0.00   12.00   96.61    0.36   10.51    0.00    1.49    0.00
 2017 047    98     0     1     4.2  150.1  148.4    1.6    5.57    7.34    9.33    8.50    6.64    5.97    5.73    5.64    1.10    0.41    0.07    0.02    0.01    0.01    0.00    0.00   12.13   96.64    0.36   10.61    0.00    1.51    0.00
 2017 048    99     0     1     4.3  150.0  148.4    1.6    5.85    7.31    9.26    8.47    6.65    5.97    5.72    5.64    1.09    0.41    0.07    0.02    0.01    0.01    0.00    0.00   12.29   96.68    0.36   10.74    0.00    1.55    0.00
 2017 049   100     0     1     4.3  150.0  148.4    1.6    6.00    7.29    9.22    8.50    6.65    5.97    5.72    5.64    1.09    0.41    0.07    0.02    0.01    0.01    0.00    0.00   12.46   96.72    0.36   10.88    0.00    1.58    0.00
 2017 050   101     0     1     4.3  150.0  148.4    1.6    6.29    7.27    9.16    8.47    6.65    5.97    5.72    5.64    1.08    0.41    0.07    0.02    0.01    0.01    0.00    0.00   12.61   96.76    0.36   11.00    0.00    1.61    0.00
 2017 051   102     0     1     4.3  150.1  148.5    1.6    6.68    7.25    9.09    8.45    6.65    5.97    5.72    5.64    1.07    0.41    0.07    0.02    0.01    0.01    0.00    0.00   12.81   96.80    0.36   11.16    0.00    1.65    0.00
 2017 052   103     0     1     4.3  150.1  148.6    1.5    7.13    7.24    9.02    8.42    6.65    5.98    5.72    5.64    1.01    0.41    0.07    0.02    0.01    0.01    0.00    0.00   13.05   96.89    0.36   11.36    0.00    1.69    0.00
 2017 053   104     0     1     4.3  150.2  148.7    1.5    7.59    7.24    8.97    8.42    6.64    5.97    5.72    5.63    0.94    0.41    0.07    0.02    0.01    0.01    0.00    0.00   13.35   97.00    0.36   11.61    0.00    1.75    0.00
 2017 054   105     0     1     4.3  150.2  148.7    1.5    8.03    7.23    8.91    8.40    6.66    5.96    5.71    5.63    0.94    0.41    0.07    0.02    0.01    0.01    0.00    0.00   13.75   97.07    0.36   11.93    0.00    1.82    0.00
 2017 055   106     0     1     4.3  150.3  148.8    1.5    8.48    7.23    8.84    8.37    6.66    5.96    5.70    5.62    0.93    0.41    0.07    0.02    0.01    0.01    0.00    0.00   14.24   97.17    0.39   12.34    0.00    1.91    0.00
 2017 056   107     0     1     4.3  150.4  149.0    1.4    8.27    7.60    8.80    8.37    6.65    5.96    5.70    5.62    0.83    0.41    0.07    0.02    0.01    0.01    0.00    0.00   14.76   97.33    0.41   12.76    0.00    2.00    0.00
 2017 057   108     0     1     4.3  150.4  149.0    1.4    8.58    7.57    8.75    8.36    6.66    5.96    5.69    5.61    0.84    0.41    0.07    0.02    0.01    0.01    0.00    0.00   15.13   97.39    0.45   13.07    0.00    2.06    0.00
 2017 058   109     0     1     4.3  150.4  149.0    1.4    8.75    7.55    8.71    8.36    6.66    5.97    5.69    5.61    0.85    0.41    0.06    0.02    0.01    0.01    0.00    0.00   15.43   97.45    0.47   13.31    0.00    2.12    0.00
 2017 059   110     0     1     4.3  150.5  149.0    1.4    8.80    7.55    8.69    8.37    6.66    5.97    5.69    5.61    0.85    0.40    0.06    0.02    0.01    0.01    0.00    0.00   15.64   97.49    0.49   13.49    0.00    2.16    0.00
 2017 060   111     0     1     4.3  150.5  149.1    1.4    9.10    7.55    8.66    8.36    6.65    5.96    5.68    5.60    0.85    0.40    0.06    0.02    0.01    0.01    0.00    0.00   15.81   97.53    0.51   13.63    0.00    2.19    0.00
 2017 061   112     0     1     4.3  150.5  149.1    1.4    6.06    7.84    9.50    8.41    6.64    5.95    5.68    5.60    0.85    0.40    0.06    0.02    0.01    0.01    0.00    0.00   15.96   97.57    0.51   13.75    0.00    2.22    0.00
 2017 062   113     0     1     4.3  150.5  149.1    1.4    6.41    7.79    9.44    8.45    6.63    5.94    5.67    5.59    0.85    0.40    0.06    0.02    0.01    0.01    0.00    0.00   16.07   97.58    0.51   13.83    0.00    2.24    0.00
 2017 063   114     0     1     4.3  150.5  149.1    1.4    6.58    7.73    9.35    8.43    6.67    5.98    5.67    5.59    0.85    0.40    0.06    0.02    0.01    0.01    0.00    0.00   16.19   97.61    0.51   13.93    0.00    2.27    0.00
 2017 064   115     0     1     4.3  150.6  149.2    1.4    6.64    7.68    9.27    8.42    6.67    5.99    5.71    5.59    0.86    0.41    0.06    0.02    0.01    0.01    0.00    0.00   16.31   97.63    0.51   14.02    0.00    2.29    0.00
 2017 065   116     0     1     4.3  150.6  149.2    1.4    6.72    7.65    9.25    8.46    6.67    5.99    5.71    5.59    0.86    0.41    0.06    0.02    0.01    0.01    0.00    0.00   16.43   97.65    0.51   14.11    0.00    2.32    0.00
 2017 066   117     0     1     4.3  150.6  149.2    1.4    7.02    7.60    9.16    8.43    6.67    5.99    5.73    5.59    0.86    0.41    0.06    0.02    0.01    0.01    0.00    0.00   16.53   97.67    0.51   14.19    0.00    2.34    0.00
 2017 067   118     0     1     4.3  150.6  149.2    1.4    6.06    7.80    9.38    8.47    6.67    5.98    5.72    5.58    0.85    0.41    0.06    0.02    0.01    0.01    0.00    0.00   16.63   97.70    0.51   14.27    0.00    2.36    0.00
 2017 068   119     0     1     4.3  150.7  149.2    1.4    6.45    7.75    9.32    8.49    6.66    5.97    5.72    5.58    0.86    0.41    0.06    0.02    0.01    0.01    0.00    0.00   16.74   97.72    0.51   14.36    0.00    2.38    0.00
 2017 069   120     0     1     4.3  150.7  149.3    1.4    6.79    7.69    9.22    8.46    6.68    5.99    5.73    5.57    0.86    0.41    0.06    0.02    0.01    0.01    0.00    0.00   16.88   97.74    0.51   14.47    0.00    2.41    0.00
 2017 070   121     0     1     4.3  150.7  149.3    1.4    7.13    7.65    9.17    8.48    6.67    5.99    5.72    5.57    0.86    0.41    0.06    0.02    0.01    0.01    0.00    0.00   17.06   97.78    0.51   14.61    0.00    2.45    0.00
 2017 071   122     0     1     4.3  150.8  149.3    1.4    7.46    7.60    9.08    8.45    6.68    6.00    5.73    5.57    0.86    0.41    0.06    0.02    0.01    0.01    0.00    0.00   17.24   97.81    0.51   14.75    0.00    2.49    0.00
 2017 072   123     0     1     4.3  150.8  149.4    1.4    7.52    7.56    9.02    8.43    6.68    6.00    5.73    5.61    0.86    0.41    0.06    0.02    0.01    0.01    0.00    0.00   17.38   97.84    0.52   14.86    0.00    2.52    0.00
 2017 073   124     0     1     4.3  150.8  149.4    1.4    7.61    7.52    8.96    8.42    6.68    6.00    5.73    5.65    0.86    0.41    0.06    0.02    0.01    0.01    0.00    0.00   17.48   97.87    0.52   14.94    0.00    2.54    0.00
 2017 074   125     0     1     4.5  150.7  149.3    1.4    7.72    7.49    8.90    8.40    6.68    6.00    5.73    5.65    0.85    0.41    0.06    0.02    0.01    0.01    0.00    0.00   17.57   97.89    0.52   15.01    0.00    2.56    0.00
 2017 075   126     0     1     4.7  150.5  149.1    1.4    7.81    7.45    8.85    8.39    6.68    6.00    5.72    5.65    0.85    0.41    0.06    0.02    0.01    0.01    0.00    0.00   17.63   97.91    0.52   15.06    0.00    2.57    0.00
 2017 076   127     0     1     4.8  150.4  149.0    1.4    7.90    7.42    8.80    8.38    6.68    6.00    5.72    5.65    0.84    0.41    0.06    0.02    0.01    0.01    0.00    0.00   17.69   97.93    0.52   15.10    0.00    2.59    0.00
 2017 077   128     0     1     4.8  150.4  149.0    1.4    6.38    7.94    8.94    8.41    6.69    5.99    5.72    5.65    0.84    0.41    0.06    0.02    0.01    0.01    0.00    0.00   17.74   97.95    0.52   15.15    0.00    2.60    0.00
 2017 078   129     0     1     4.8  150.4  149.0    1.4    6.54    7.95    8.92    8.43    6.68    5.99    5.72    5.64    0.84    0.41    0.06    0.02    0.01    0.00    0.00    0.00   17.79   97.96    0.52   15.18    0.00    2.61    0.00
 2017 079   130     0     1     4.8  150.4  149.1    1.4    6.94    7.87    8.83    8.39    6.69    6.00    5.72    5.64    0.84    0.41    0.06    0.02    0.01    0.00    0.00    0.00   17.85   97.98    0.52   15.23    0.00    2.62    0.00
 2017 080   131     0     1     4.8  150.5  149.1    1.4    7.03    7.94    8.80    8.40    6.68    5.99    5.72    5.64    0.84    0.41    0.06    0.02    0.01    0.00    0.00    0.00   17.94   98.00    0.52   15.29    0.00    2.64    0.00
 2017 081   132     0     1     4.8  150.5  149.1    1.4    7.43    7.87    8.72    8.36    6.69    6.00    5.72    5.64    0.84    0.41    0.06    0.02    0.01    0.00    0.00    0.00   18.04   98.01    0.52   15.37    0.00    2.67    0.00
 2017 082   133     0     1     4.8  150.5  149.1    1.4    7.87    7.80    8.65    8.33    6.69    6.00    5.72    5.65    0.84    0.41    0.06    0.02    0.01    0.00    0.00    0.00   18.19   98.04    0.52   15.49    0.00    2.70    0.00
 2017 083   134     0     1     4.8  150.5  149.1    1.4    8.27    7.74    8.58    8.30    6.69    6.00    5.72    5.65    0.84    0.42    0.06    0.02    0.01    0.00    0.00    0.00   18.36   98.08    0.52   15.63    0.00    2.73    0.00
 2017 084   135     0     1     4.9  150.5  149.1    1.4    8.54    7.70    8.53    8.28    6.69    6.00    5.72    5.65    0.84    0.42    0.06    0.02    0.01    0.01    0.00    0.00   18.52   98.12    0.52   15.75    0.00    2.77    0.00
 2017 085   136     0     1     4.9  150.6  149.2    1.4    7.14    8.13    8.79    8.30    6.67    5.99    5.71    5.64    0.83    0.42    0.06    0.02    0.01    0.01    0.00    0.00   18.71   98.16    0.52   15.90    0.00    2.80    0.00
 2017 086   137     0     1     4.9  150.5  149.1    1.4    7.29    8.11    8.80    8.31    6.66    5.98    5.70    5.64    0.84    0.42    0.06    0.02    0.01    0.01    0.00    0.00   18.88   98.19    0.62   16.04    0.00    2.84    0.00
 2017 087   138     0     1     4.9  150.4  149.0    1.4    7.71    7.98    8.70    8.28    6.69    6.00    5.70    5.63    0.84    0.42    0.06    0.02    0.01    0.01    0.00    0.00   19.05   98.22    0.73   16.17    0.00    2.88    0.00
 2017 088   139     0     1     4.9  150.4  149.0    1.4    8.18    7.87    8.61    8.27    6.70    6.01    5.69    5.62    0.84    0.42    0.06    0.02    0.01    0.01    0.00    0.00   19.25   98.26    0.82   16.33    0.00    2.92    0.00
 2017 089   140     0     1     4.9  150.3  148.9    1.4    8.64    7.78    8.52    8.27    6.70    6.01    5.68    5.61    0.84    0.43    0.06    0.02    0.01    0.01    0.00    0.00   19.50   98.31    0.90   16.52    0.00    2.98    0.00
 2017 090   141     0     1     4.9  150.3  148.9    1.4    4.47    6.70    8.88    9.94    6.79    6.00    5.67    5.61    0.83    0.43    0.06    0.02    0.01    0.01    0.00    0.00   19.76   98.37    0.97   16.73    0.00    3.03    0.00
 2017 091   142     0     1     4.9  150.2  148.8    1.4    2.58    5.19    7.92    9.66    9.35    6.09    5.67    5.60    0.84    0.43    0.06    0.02    0.01    0.01    0.00    0.00   19.91   98.39    1.09   16.84    0.00    3.07    0.00
 2017 092   143     0     1     5.2  149.8  148.4    1.5    2.86    5.14    7.78    9.50    9.18    6.07    5.72    5.65    0.85    0.44    0.06    0.02    0.01    0.01    0.00    0.00   20.05   98.41    1.19   16.94    0.00    3.11    0.00
 2017 093   144     0     1     5.2  149.8  148.3    1.5    3.13    5.12    7.70    9.45    9.12    6.13    5.72    5.65    0.86    0.45    0.06    0.02    0.01    0.01    0.00    0.00   20.18   98.43    1.27   17.03    0.00    3.15    0.00
 2017 094   145     0     1     5.2  149.7  148.3    1.5    3.47    5.11    7.61    9.40    9.06    6.17    5.71    5.64    0.87    0.46    0.06    0.02    0.01    0.01    0.00    0.00   20.33   98.46    1.35   17.13    0.00    3.20    0.00
 2017 095   146     0     1     5.2  149.6  148.1    1.5    3.37    5.21    7.60    9.32    8.98    6.21    5.71    5.63    0.87    0.46    0.06    0.02    0.01    0.01    0.00    0.00   20.47   98.49    1.51   17.23    0.00    3.24    0.00
 2017 096   147     0     1     5.2  149.5  148.0    1.5    3.07    5.00    7.62    9.47    8.92    6.25    5.72    5.62    0.88    0.47    0.06    0.02    0.01    0.01    0.00    0.00   20.61   98.51    1.68   17.33    0.00    3.29    0.00
 2017 097   148     0     1     5.2  149.3  147.8    1.6    2.38    4.47    7.18    9.16    9.33    6.62    5.74    5.62    0.89    0.48    0.06    0.02    0.01    0.01    0.00    0.00   20.76   98.53    1.87   17.43    0.00    3.33    0.00
 2017 098   149     0     1     6.2  148.2  146.6    1.6    2.57    4.43    7.06    8.99    9.13    6.57    5.72    5.64    0.91    0.49    0.06    0.02    0.01    0.01    0.00    0.00   20.91   98.55    2.08   17.53    0.00    3.38    0.00
 2017 099   150     0     1     7.3  147.0  145.4    1.6    2.85    4.42    6.95    8.83    8.93    6.51    5.70    5.64    0.92    0.50    0.06    0.02    0.01    0.01    0.00    0.00   21.06   98.58    2.26   17.63    0.00    3.43    0.00
 2017 100   151     0     1     8.2  145.9  144.3    1.6    3.15    4.41    6.85    8.68    8.74    6.46    5.69    5.63    0.92    0.51    0.06    0.02    0.01    0.01    0.00    0.00   21.22   98.61    2.43   17.74    0.00    3.48    0.00
 2017 101   152     0     1     8.2  145.9  144.2    1.6    3.53    4.43    6.78    8.60    8.65    6.48    5.70    5.62    0.92    0.52    0.06    0.02    0.01    0.01    0.00    0.00   21.43   98.66    2.58   17.88    0.00    3.55    0.00
 2017 102   153     0     1     8.2  145.8  144.1    1.7    3.72    4.55    6.72    8.53    8.56    6.49    5.72    5.61    0.94    0.54    0.06    0.02    0.01    0.01    0.00    0.00   21.66   98.71    2.75   18.03    0.00    3.62    0.00
 2017 103   154     0     1     9.0  144.9  143.2    1.7    4.06    4.54    6.63    8.39    8.39    6.44    5.70    5.62    0.95    0.55    0.06    0.02    0.01    0.01    0.00    0.00   21.93   98.76    2.94   18.22    0.00    3.71    0.00
 2017 104   155     0     1     9.0  144.8  143.1    1.7    3.64    4.73    6.68    8.33    8.31    6.45    5.71    5.62    0.96    0.56    0.06    0.02    0.01    0.01    0.00    0.00   22.22   98.82    3.11   18.42    0.00    3.80    0.00
 2017 105   156     0     1     9.8  143.9  142.1    1.8    3.98    4.70    6.59    8.20    8.15    6.40    5.69    5.62    0.97    0.58    0.06    0.02    0.01    0.01    0.00    0.00   22.46   98.87    3.30   18.58    0.00    3.88    0.00
 2017 106   157     0     1     9.8  143.8  142.0    1.8    3.42    4.62    6.86    8.17    8.07    6.41    5.71    5.61    0.98    0.59    0.07    0.02    0.01    0.01    0.00    0.00   22.72   98.92    3.47   18.76    0.00    3.97    0.00
 2017 107   158     0     1     9.8  143.7  141.9    1.8    2.30    3.90    6.26    8.20    8.87    6.64    5.73    5.60    0.99    0.61    0.07    0.02    0.01    0.01    0.00    0.00   22.95   98.97    3.67   18.91    0.00    4.04    0.00
 2017 108   159     0     1    10.9  142.5  140.6    1.9    2.66    3.89    6.15    8.04    8.64    6.56    5.71    5.61    1.01    0.63    0.07    0.02    0.01    0.01    0.00    0.00   23.21   99.01    3.91   19.07    0.00    4.13    0.00
 2017 109   160     0     1    11.9  141.3  139.4    1.9    3.01    3.89    6.05    7.88    8.44    6.49    5.68    5.60    1.01    0.65    0.07    0.02    0.01    0.01    0.00    0.00   23.52   99.08    4.15   19.28    0.00    4.25    0.00
 2017 110   161     0     1    12.8  140.3  138.4    1.9    3.40    3.91    5.96    7.74    8.24    6.43    5.66    5.59    1.01    0.67    0.07    0.03    0.01    0.01    0.00    0.00   23.89   99.18    4.37   19.52    0.00    4.37    0.00
 2017 111   162     0     1    12.8  140.3  138.3    2.0    3.74    4.00    5.90    7.67    8.15    6.43    5.68    5.58    1.00    0.68    0.07    0.03    0.01    0.01    0.01    0.00   24.32   99.31    4.57   19.80    0.00    4.52    0.00
 2017 112   163     0     1    12.8  140.2  138.2    2.0    4.07    4.03    5.84    7.60    8.05    6.44    5.69    5.58    1.01    0.70    0.07    0.03    0.01    0.01    0.01    0.00   24.67   99.40    4.78   20.03    0.00    4.64    0.00
 2017 113   164     0     1    13.5  139.4  137.4    2.0    4.41    4.05    5.77    7.48    7.89    6.38    5.67    5.59    1.01    0.71    0.07    0.03    0.01    0.01    0.01    0.00   25.00   99.50    4.96   20.24    0.00    4.76    0.00
 2017 114   165     0     1    14.3  138.6  136.6    2.0    4.74    4.07    5.71    7.38    7.74    6.33    5.65    5.58    1.01    0.71    0.07    0.03    0.01    0.01    0.01    0.00   25.30   99.60    5.11   20.44    0.00    4.86    0.00
 2017 115   166     0     1    14.3  138.6  136.6    2.0    5.12    4.10    5.67    7.32    7.66    6.33    5.67    5.57    0.99    0.71    0.07    0.03    0.01    0.01    0.01    0.00   25.60   99.70    5.24   20.64    0.00    4.96    0.00
 2017 116   167     0     1    14.8  138.0  136.0    2.0    5.57    4.14    5.62    7.23    7.53    6.28    5.65    5.58    0.97    0.72    0.07    0.03    0.01    0.01    0.01    0.00   25.89   99.82    5.34   20.83    0.00    5.06    0.00
 2017 117   168     0     1    14.8  138.0  136.1    1.9    6.11    4.20    5.58    7.17    7.45    6.27    5.66    5.57    0.86    0.71    0.07    0.03    0.01    0.01    0.01    0.00   26.20  100.00    5.44   21.03    0.00    5.17    0.00
 2017 118   169     0     1    14.8  138.0  136.1    1.9    4.64    4.76    5.83    7.13    7.38    6.27    5.67    5.56    0.86    0.71    0.07    0.03    0.01    0.01    0.01    0.00   26.52  100.12    5.54   21.24    0.00    5.27    0.00
 2017 119   170     0     1    14.8  138.0  136.0    1.9    4.92    4.78    5.80    7.10    7.31    6.27    5.68    5.55    0.87    0.72    0.07    0.03    0.01    0.01    0.01    0.00   26.76  100.18    5.69   21.40    0.00    5.36    0.00
 2017 120   171     0     1    14.8  137.9  135.9    2.0    5.24    4.74    5.76    7.06    7.25    6.27    5.69    5.54    0.88    0.74    0.07    0.03    0.01    0.01    0.01    0.00   26.98  100.24    5.84   21.54    0.00    5.44    0.00
 2017 121   172     0     1    14.8  137.8  135.9    2.0    2.24    3.42    5.05    6.85    7.82    7.23    5.75    5.54    0.88    0.74    0.07    0.03    0.01    0.01    0.01    0.00   27.20  100.30    5.97   21.68    0.00    5.52    0.00
 2017 122   173     0     1    14.8  137.7  135.7    2.0    1.76    3.09    4.79    6.57    7.58    7.64    5.84    5.55    0.89    0.76    0.07    0.03    0.01    0.01    0.01    0.00   27.35  100.34    6.18   21.77    0.00    5.58    0.00
 2017 123   174     0     1    14.8  137.6  135.5    2.0    1.64    2.94    4.66    6.43    7.46    7.76    5.92    5.56    0.90    0.77    0.07    0.03    0.02    0.01    0.01    0.00   27.48  100.36    6.38   21.84    0.00    5.64    0.00
 2017 124   175     0     1    14.8  137.4  135.4    2.0    1.86    2.94    4.61    6.38    7.38    7.68    5.99    5.57    0.91    0.78    0.07    0.03    0.02    0.01    0.01    0.00   27.59  100.39    6.57   21.90    0.00    5.68    0.00
 2017 125   176     0     1    14.8  137.3  135.2    2.1    2.07    2.95    4.57    6.33    7.31    7.60    6.06    5.59    0.92    0.78    0.07    0.03    0.02    0.01    0.01    0.00   27.70  100.42    6.76   21.97    0.00    5.73    0.00
 2017 126   177     0     1    16.4  135.6  133.5    2.1    2.32    2.95    4.51    6.22    7.14    7.44    5.99    5.57    0.92    0.79    0.07    0.03    0.02    0.01    0.01    0.00   27.83  100.46    6.94   22.04    0.00    5.79    0.00
 2017 127   178     0     1    16.4  135.5  133.4    2.1    2.10    3.01    4.59    6.19    7.06    7.37    6.04    5.58    0.92    0.80    0.08    0.03    0.02    0.01    0.01    0.00   27.98  100.51    7.11   22.13    0.00    5.85    0.00
 2017 128   179     0     1    17.9  133.8  131.7    2.1    2.36    3.01    4.53    6.08    6.90    7.22    5.97    5.56    0.93    0.81    0.08    0.03    0.02    0.01    0.01    0.00   28.11  100.54    7.31   22.20    0.00    5.91    0.00
 2017 129   180     0     1    19.3  132.3  130.2    2.1    2.62    3.01    4.46    5.98    6.76    7.08    5.91    5.53    0.93    0.82    0.08    0.03    0.02    0.01    0.01    0.00   28.27  100.59    7.48   22.29    0.00    5.98    0.00
 2017 130   181     0     1    19.3  132.2  130.1    2.1    2.27    3.04    4.53    6.02    6.70    7.02    5.95    5.55    0.93    0.83    0.08    0.03    0.02    0.01    0.01    0.00   28.45  100.65    7.65   22.40    0.00    6.05    0.00
 2017 131   182     0     1    20.7  130.7  128.6    2.2    2.53    3.03    4.47    5.92    6.56    6.88    5.89    5.52    0.94    0.84    0.08    0.03    0.02    0.01    0.01    0.00   28.61  100.69    7.84   22.49    0.00    6.12    0.00
 2017 132   183     0     1    20.7  130.6  128.4    2.2    1.70    2.67    4.18    5.85    6.98    7.00    5.93    5.54    0.95    0.85    0.08    0.03    0.02    0.01    0.01    0.00   28.79  100.75    8.01   22.59    0.00    6.20    0.00
 2017 133   184     0     1    22.2  129.0  126.7    2.2    1.94    2.67    4.12    5.74    6.81    6.85    5.86    5.51    0.96    0.86    0.08    0.03    0.02    0.01    0.01    0.00   28.95  100.79    8.22   22.68    0.00    6.27    0.00
 2017 134   185     0     1    23.6  127.5  125.2    2.3    2.22    2.68    4.06    5.63    6.64    6.72    5.80    5.48    0.96    0.87    0.08    0.03    0.02    0.01    0.01    0.00   29.15  100.86    8.41   22.79    0.00    6.36    0.00
 2017 135   186     0     1    24.9  126.1  123.9    2.3    2.53    2.71    4.01    5.54    6.49    6.59    5.74    5.46    0.96    0.88    0.08    0.03    0.02    0.01    0.01    0.00   29.38  100.95    8.60   22.92    0.00    6.46    0.00
 2017 136   187     0     1    26.0  125.0  122.7    2.3    2.91    2.74    3.97    5.46    6.35    6.47    5.68    5.45    0.95    0.89    0.08    0.03    0.02    0.01    0.01    0.00   29.67  101.08    8.77   23.08    0.00    6.59    0.00
 2017 137   188     0     1    27.0  124.0  121.8    2.2    3.43    2.80    3.93    5.38    6.22    6.36    5.63    5.43    0.80    0.89    0.08    0.03    0.02    0.01    0.01    0.00   30.01  101.32    8.93   23.27    0.00    6.74    0.00
 2017 138   189     0     1    27.9  123.1  121.0    2.1    4.00    2.87    3.89    5.31    6.10    6.26    5.58    5.42    0.66    0.88    0.08    0.03    0.02    0.01    0.01    0.00   30.40  101.60    9.10   23.49    0.00    6.91    0.00
 2017 139   190     0     1    27.9  123.1  121.2    1.9    4.57    2.97    3.87    5.27    6.04    6.21    5.59    5.42    0.53    0.86    0.08    0.03    0.02    0.01    0.01    0.00   30.85  101.92    9.25   23.74    0.00    7.11    0.00
 2017 140   191     0     1    27.9  123.2  121.3    1.9    5.00    3.09    3.85    5.23    5.98    6.17    5.61    5.43    0.54    0.84    0.08    0.03    0.02    0.01    0.01    0.00   31.36  102.18    9.40   24.03    0.00    7.33    0.00
 2017 141   192     0     1    27.9  123.3  121.4    1.9    4.90    3.44    3.84    5.20    5.92    6.13    5.62    5.43    0.54    0.81    0.08    0.03    0.02    0.01    0.01    0.00   31.85  102.43    9.53   24.30    0.00    7.55    0.00
 2017 142   193     0     1    27.9  123.3  121.4    1.9    3.47    3.71    4.23    5.19    5.87    6.09    5.63    5.44    0.55    0.80    0.08    0.03    0.02    0.01    0.01    0.00   32.17  102.58    9.66   24.48    0.00    7.69    0.00
 2017 143   194     0     1    28.8  122.3  120.4    1.9    3.82    3.66    4.17    5.12    5.77    6.00    5.58    5.42    0.57    0.82    0.08    0.03    0.02    0.01    0.01    0.00   32.38  102.65    9.83   24.59    0.00    7.79    0.00
 2017 144   195     0     1    28.8  122.2  120.3    1.9    4.11    3.64    4.14    5.11    5.72    5.97    5.59    5.43    0.58    0.83    0.08    0.03    0.02    0.01    0.01    0.00   32.57  102.72    9.97   24.69    0.00    7.88    0.00
 2017 145   196     0     1    28.8  122.1  120.2    1.9    3.09    3.57    4.29    5.38    5.70    5.93    5.60    5.43    0.59    0.83    0.08    0.03    0.02    0.01    0.01    0.00   32.74  102.78   10.10   24.78    0.00    7.96    0.00
 2017 146   197     0     1    29.9  121.0  119.1    2.0    3.40    3.52    4.22    5.29    5.60    5.85    5.55    5.41    0.61    0.84    0.08    0.03    0.02    0.01    0.01    0.00   32.87  102.83   10.25   24.85    0.00    8.03    0.00
 2017 147   198     0     1    30.8  120.1  118.1    2.0    3.73    3.48    4.16    5.22    5.51    5.77    5.50    5.38    0.62    0.85    0.08    0.03    0.02    0.01    0.01    0.00   33.04  102.89   10.40   24.93    0.00    8.11    0.00
 2017 148   199     0     1    30.8  120.0  118.0    2.0    3.08    3.55    4.26    5.33    5.50    5.74    5.50    5.39    0.62    0.85    0.08    0.03    0.02    0.01    0.01    0.00   33.23  102.97   10.52   25.03    0.00    8.20    0.00
 2017 149   200     0     1    31.7  119.0  117.0    2.0    3.42    3.50    4.19    5.25    5.41    5.67    5.45    5.36    0.64    0.86    0.08    0.03    0.02    0.01    0.01    0.00   33.40  103.03   10.68   25.11    0.00    8.29    0.00
 2017 150   201     0     1    31.7  119.0  116.9    2.0    3.82    3.47    4.14    5.22    5.39    5.64    5.45    5.37    0.64    0.87    0.08    0.03    0.02    0.01    0.01    0.00   33.59  103.11   10.82   25.21    0.00    8.38    0.00
 2017 151   202     0     1    31.7  118.9  116.9    2.0    4.24    3.46    4.10    5.19    5.38    5.61    5.45    5.37    0.64    0.87    0.08    0.03    0.01    0.01    0.01    0.00   33.83  103.22   10.96   25.33    0.00    8.50    0.00
 2017 152   203     0     1    32.4  118.2  116.3    2.0    4.77    3.46    4.05    5.12    5.30    5.55    5.41    5.35    0.55    0.86    0.08    0.03    0.01    0.01    0.01    0.00   34.10  103.43   11.09   25.47    0.00    8.63    0.00
 2017 153   204     0     1    33.0  117.7  115.8    1.9    5.29    3.47    4.00    5.06    5.24    5.49    5.37    5.34    0.47    0.85    0.08    0.03    0.01    0.01    0.01    0.00   34.38  103.63   11.20   25.61    0.00    8.77    0.00
 2017 154   205     0     1    33.5  117.2  115.4    1.8    5.79    3.49    3.96    5.00    5.17    5.44    5.34    5.33    0.40    0.84    0.08    0.03    0.01    0.01    0.01    0.00   34.66  103.84   11.30   25.76    0.00    8.90    0.00
 2017 155   206     0     1    34.0  116.8  115.1    1.7    6.32    3.53    3.92    4.95    5.12    5.39    5.30    5.32    0.34    0.82    0.08    0.03    0.01    0.01    0.01    0.00   34.95  104.05   11.38   25.91    0.00    9.04    0.00
 2017 156   207     0     1    34.0  116.9  115.2    1.7    6.98    3.61    3.92    4.95    5.12    5.35    5.27    5.29    0.28    0.80    0.08    0.03    0.01    0.01    0.01    0.00   35.25  104.27   11.46   26.06    0.00    9.19    0.00
 2017 157   208     0     1    34.0  117.0  115.4    1.6    7.68    3.70    3.93    4.93    5.09    5.30    5.22    5.32    0.23    0.77    0.08    0.03    0.01    0.01    0.01    0.00   35.58  104.51   11.52   26.23    0.00    9.35    0.00
 2017 158   209     0     1    34.1  117.0  115.5    1.5    8.38    3.80    3.94    4.92    5.07    5.25    5.18    5.32    0.19    0.74    0.08    0.03    0.01    0.01    0.01    0.00   35.95  104.77   11.58   26.42    0.00    9.52    0.00
 2017 159   210     0     1    34.1  117.1  115.8    1.2    9.03    4.04    3.95    4.91    5.04    5.20    5.15    5.31    0.15    0.57    0.07    0.03    0.01    0.01    0.01    0.00   36.31  105.22   11.63   26.61    0.00    9.70    0.00
 2017 160   211     0     1    34.1  117.2  116.2    1.0    9.70    4.19    3.96    4.90    5.03    5.17    5.13    5.29    0.13    0.46    0.07    0.03    0.01    0.01    0.01    0.00   36.66  105.58   11.67   26.79    0.00    9.87    0.00
 2017 161   212     0     1    34.1  117.3  116.4    0.9   10.38    4.30    3.97    4.90    5.03    5.14    5.11    5.26    0.12    0.38    0.07    0.03    0.01    0.01    0.01    0.00   36.99  105.86   11.70   26.95    0.00   10.03    0.00
 2017 162   213     0     1    34.1  117.3  116.5    0.8   11.00    4.32    3.98    4.91    5.03    5.12    5.08    5.22    0.11    0.33    0.07    0.03    0.01    0.01    0.00    0.00   37.30  106.10   11.72   27.11    0.00   10.19    0.15
 2017 163   214     0     1    34.1  117.2  116.4    0.8   11.40    4.26    3.95    4.89    5.00    5.10    5.08    5.21    0.10    0.29    0.07    0.03    0.01    0.01    0.00    0.00   37.59  106.31   11.73   27.25    0.00   10.34    0.45
 2017 164   215     0     1    34.1  116.9  116.2    0.7   11.86    4.21    3.95    4.90    5.00    5.07    5.05    5.17    0.10    0.26    0.06    0.03    0.01    0.01    0.00    0.00   37.89  106.52   11.74   27.40    0.00   10.50    0.86
 2017 165   216     0     1    34.1  116.6  115.9    0.7   12.27    4.15    3.96    4.91    4.99    5.04    5.01    5.13    0.09    0.24    0.05    0.03    0.01    0.01    0.00    0.00   38.22  106.77   11.75   27.55    0.00   10.67    1.34
 2017 166   217     0     1    34.1  116.1  115.5    0.6   12.49    4.04    3.94    4.93    5.00    5.02    4.98    5.09    0.08    0.21    0.04    0.03    0.01    0.01    0.00    0.00   38.56  107.01   11.75   27.71    0.00   10.85    2.06
 2017 167   218     0     1    34.1  115.4  114.8    0.5    9.91    5.25    3.91    4.94    5.00    4.99    4.95    5.05    0.08    0.19    0.03    0.02    0.01    0.01    0.00    0.00   38.90  107.26   11.75   27.86    0.00   11.04    2.92
 2017 168   219     0     1    34.1  113.5  113.0    0.5    5.10    4.93    4.89    4.95    4.99    4.98    4.94    5.04    0.10    0.18    0.03    0.02    0.01    0.01    0.00    0.00   39.27  107.47   11.75   28.04    0.00   11.23    5.03
 2017 169   220     0     1    34.1  112.4  111.8    0.6    4.00    4.60    4.82    5.13    5.00    4.97    4.93    5.03    0.14    0.22    0.04    0.02    0.01    0.01    0.00    0.00   39.54  107.55   11.75   28.15    0.00   11.40    6.22
 2017 170   221     0     1    34.1  111.5  110.8    0.7    3.09    4.18    4.71    5.33    5.04    4.96    4.92    5.02    0.19    0.26    0.04    0.02    0.01    0.01    0.00    0.00   39.80  107.61   11.75   28.24    0.00   11.56    7.36
 2017 171   222     0     1    34.1  110.9  110.1    0.8    3.29    4.03    4.60    5.19    5.07    4.95    4.91    5.01    0.24    0.29    0.04    0.02    0.01    0.01    0.00    0.00   40.05  107.68   11.75   28.34    0.00   11.72    8.07
 2017 172   223     0     1    34.1  110.4  109.5    0.9    3.47    3.89    4.50    5.07    5.09    4.94    4.90    5.01    0.27    0.32    0.05    0.02    0.01    0.01    0.00    0.00   40.29  107.75   11.77   28.42    0.00   11.87    8.70
 2017 173   224     0     1    34.1  109.6  108.7    0.9    3.27    3.87    4.36    4.94    5.09    4.94    4.89    5.00    0.31    0.35    0.05    0.02    0.01    0.01    0.00    0.00   40.53  107.83   11.87   28.51    0.00   12.02    9.53
 2017 174   225     0     1    34.1  108.8  107.8    1.0    3.43    3.72    4.17    4.73    5.00    5.00    4.89    4.99    0.33    0.38    0.05    0.02    0.01    0.01    0.00    0.00   40.72  107.90   12.01   28.57    0.00   12.15   10.36
 2017 175   226     0     1    34.1  107.6  106.6    1.1    2.36    3.36    4.15    4.85    4.99    5.00    4.88    4.99    0.36    0.40    0.05    0.02    0.01    0.01    0.00    0.00   40.93  107.98   12.12   28.64    0.00   12.29   11.54
 2017 176   227     0     1    34.1  106.5  105.4    1.1    2.46    3.21    4.01    4.64    4.90    4.99    4.87    4.98    0.39    0.43    0.06    0.02    0.01    0.01    0.00    0.00   41.12  108.04   12.27   28.71    0.00   12.41   12.61
 2017 177   228     0     1    34.1  105.4  104.3    1.2    2.52    3.04    3.86    4.46    4.82    4.99    4.87    4.97    0.41    0.45    0.06    0.03    0.01    0.01    0.00    0.00   41.33  108.12   12.40   28.77    0.00   12.56   13.71
 2017 178   229     0     1    34.1  104.4  103.2    1.2    2.55    2.88    3.70    4.27    4.66    5.05    4.86    4.97    0.43    0.47    0.06    0.03    0.01    0.01    0.00    0.00   41.55  108.22   12.51   28.84    0.00   12.70   14.77
 2017 179   230     0     1    34.1  103.4  102.1    1.3    2.56    2.73    3.54    4.08    4.51    5.10    4.85    4.96    0.45    0.49    0.06    0.03    0.01    0.01    0.00    0.00   41.77  108.33   12.59   28.91    0.00   12.85   15.89
 2017 180   231     0     1    34.1  102.2  101.0    1.3    2.62    2.56    3.37    3.93    4.43    5.10    4.85    4.96    0.39    0.50    0.07    0.03    0.01    0.01    0.00    0.00   41.98  108.49   12.66   28.98    0.00   13.00   17.13
 2017 181   232     0     1    34.1  100.6   99.4    1.2    1.89    2.50    3.26    3.73    4.31    5.09    4.84    4.95    0.35    0.51    0.07    0.03    0.01    0.01    0.00    0.00   42.18  108.64   12.71   29.04    0.00   13.14   18.81
 2017 182   233     0     1    34.1   98.7   97.4    1.3    1.79    2.40    3.03    3.40    4.10    5.09    4.84    4.94    0.37    0.53    0.07    0.03    0.01    0.01    0.00    0.00   42.32  108.70   12.77   29.09    0.00   13.24   20.75
 2017 183   234     0     1    34.1   96.6   95.3    1.3    1.79    2.24    2.75    3.02    3.80    5.08    4.88    4.94    0.40    0.55    0.07    0.03    0.01    0.01    0.00    0.00   42.48  108.76   12.84   29.13    0.00   13.35   22.90
 2017 184   235     0     1    34.1   94.6   93.2    1.4    1.70    2.04    2.47    2.72    3.55    5.04    4.93    4.93    0.42    0.56    0.07    0.03    0.01    0.01    0.00    0.00   42.67  108.85   12.89   29.18    0.00   13.48   25.00
 2017 185   236     0     1    34.1   92.2   90.8    1.4    1.50    1.77    2.16    2.42    3.30    5.00    4.96    4.93    0.44    0.57    0.07    0.03    0.01    0.01    0.00    0.00   42.88  108.97   12.93   29.24    0.00   13.64   27.52
 2017 186   237     0     1    34.1   88.9   87.5    1.4    1.17    1.40    1.76    2.06    3.02    4.92    4.96    4.93    0.46    0.57    0.07    0.03    0.01    0.01    0.00    0.00   43.14  109.12   12.95   29.32    0.00   13.82   31.00
 2017 187   238     0     1    34.1   85.4   84.0    1.4    0.88    1.01    1.34    1.70    2.70    4.84    4.96    4.92    0.47    0.56    0.07    0.03    0.01    0.01    0.00    0.00   43.41  109.29   12.97   29.39    0.00   14.02   34.67
 2017 188   239     0     1    34.1   81.6   80.2    1.4    0.58    0.64    0.96    1.35    2.37    4.69    4.96    4.92    0.49    0.55    0.07    0.03    0.01    0.01    0.00    0.00   43.71  109.48   12.98   29.47    0.00   14.24   38.62
 2017 189   240     0     1    34.1   77.9   76.5    1.4    0.50    0.37    0.63    1.00    2.02    4.46    4.96    4.92    0.52    0.54    0.07    0.03    0.01    0.01    0.00    0.00   44.00  109.67   12.99   29.55    0.00   14.46   42.53
 2017 190   241     0     1    34.1   74.9   73.7    1.2    0.38    0.44    0.42    0.74    1.71    4.19    4.95    4.91    0.53    0.42    0.07    0.03    0.01    0.01    0.00    0.00   44.33  110.03   12.99   29.63    0.00   14.70   45.82
 2017 191   242     0     1    34.1   72.1   70.9    1.2    0.32    0.40    0.28    0.56    1.46    3.88    4.95    4.91    0.53    0.36    0.06    0.03    0.01    0.01    0.00    0.00   44.66  110.36   12.99   29.71    0.00   14.95   48.88
 2017 192   243     0     1    34.1   69.6   68.5    1.1    0.21    0.38    0.29    0.43    1.24    3.54    4.95    4.91    0.53    0.32    0.06    0.02    0.01    0.01    0.00    0.00   44.98  110.66   13.00   29.79    0.00   15.19   51.61
 2017 193   244     0     1    34.1   67.3   66.1    1.2    0.23    0.34    0.26    0.33    1.05    3.18    4.95    4.91    0.55    0.36    0.06    0.02    0.01    0.01    0.00    0.00   45.19  110.76   13.00   29.84    0.00   15.36   54.07
 2017 194   245     0     1    34.1   65.3   64.1    1.2    0.25    0.31    0.25    0.26    0.90    2.84    4.95    4.90    0.57    0.40    0.07    0.02    0.01    0.01    0.00    0.00   45.41  110.85   13.00   29.89    0.00   15.52   56.18
 2017 195   246     0     1    34.1   63.7   62.4    1.3    0.19    0.26    0.28    0.28    0.76    2.54    4.95    4.90    0.57    0.43    0.07    0.02    0.01    0.01    0.00    0.00   45.64  110.96   13.01   29.94    0.00   15.70   57.99
 2017 196   247     0     1    34.1   62.2   60.9    1.3    0.21    0.26    0.25    0.26    0.65    2.27    4.94    4.90    0.59    0.47    0.07    0.02    0.01    0.01    0.00    0.00   45.83  111.04   13.01   29.98    0.00   15.85   59.62
 2017 197   248     0     1    34.1   61.0   59.6    1.4    0.24    0.26    0.25    0.25    0.56    2.03    4.94    4.90    0.60    0.50    0.07    0.02    0.01    0.01    0.00    0.00   46.04  111.12   13.02   30.03    0.00   16.01   61.00
 2017 198   249     0     1    34.1   59.9   58.5    1.4    0.22    0.27    0.26    0.26    0.48    1.81    4.94    4.90    0.59    0.53    0.07    0.02    0.01    0.01    0.00    0.00   46.24  111.22   13.03   30.08    0.00   16.16   62.24
 2017 199   250     0     1    34.1   58.9   57.4    1.5    0.24    0.26    0.25    0.25    0.41    1.61    4.94    4.90    0.60    0.55    0.08    0.02    0.01    0.01    0.00    0.00   46.42  111.29   13.03   30.12    0.00   16.30   63.39
 2017 200   251     0     1    34.1   58.0   56.5    1.5    0.27    0.27    0.25    0.25    0.35    1.44    4.94    4.90    0.60    0.57    0.08    0.02    0.01    0.01    0.00    0.00   46.60  111.38   13.04   30.16    0.00   16.44   64.38
 2017 201   252     0     1    34.1   57.2   55.7    1.5    0.28    0.27    0.25    0.25    0.30    1.29    4.94    4.90    0.59    0.58    0.08    0.02    0.01    0.01    0.00    0.00   46.78  111.47   13.05   30.20    0.00   16.58   65.29
 2017 202   253     0     1    34.1   56.5   55.0    1.5    0.14    0.21    0.24    0.27    0.34    1.15    4.94    4.90    0.57    0.57    0.08    0.02    0.01    0.01    0.00    0.00   46.98  111.59   13.06   30.25    0.00   16.73   66.15
 2017 203   254     0     1    34.1   56.0   54.4    1.6    0.15    0.23    0.24    0.26    0.30    1.03    4.94    4.90    0.58    0.59    0.08    0.03    0.01    0.01    0.00    0.00   47.17  111.66   13.07   30.29    0.00   16.87   66.85
 2017 204   255     0     1    34.1   55.5   53.9    1.6    0.08    0.17    0.21    0.24    0.26    0.97    4.95    4.89    0.60    0.62    0.09    0.03    0.01    0.01    0.00    0.00   47.36  111.74   13.08   30.34    0.00   17.02   67.48
 2017 205   256     0     1    34.1   55.0   53.3    1.7    0.11    0.19    0.21    0.23    0.25    0.86    4.94    4.89    0.61    0.64    0.09    0.03    0.01    0.01    0.00    0.00   47.55  111.81   13.09   30.38    0.00   17.17   68.10
 2017 206   257     0     1    34.1   54.0   52.3    1.7    0.14    0.21    0.21    0.23    0.25    0.75    4.70    5.02    0.63    0.65    0.09    0.03    0.01    0.01    0.00    0.00   47.76  111.90   13.10   30.43    0.00   17.33   69.19
 2017 207   258     0     1    34.1   52.9   51.2    1.7    0.18    0.24    0.21    0.23    0.24    0.66    4.36    5.20    0.62    0.64    0.09    0.03    0.02    0.01    0.00    0.00   47.99  112.02   13.11   30.49    0.00   17.50   70.47
 2017 208   259     0     1    34.7   51.3   49.6    1.7    0.23    0.28    0.21    0.23    0.24    0.57    4.03    5.24    0.60    0.62    0.09    0.03    0.02    0.01    0.00    0.00   48.22  112.15   13.12   30.54    0.00   17.68   71.74
 2017 209   260     0     1    34.7   50.1   48.5    1.6    0.21    0.29    0.23    0.24    0.24    0.51    3.84    5.24    0.57    0.59    0.09    0.03    0.02    0.01    0.00    0.00   48.45  112.30   13.13   30.60    0.00   17.85   73.09
 2017 210   261     0     1    35.7   47.9   46.3    1.7    0.24    0.27    0.23    0.24    0.24    0.45    3.51    5.16    0.58    0.61    0.10    0.04    0.02    0.01    0.01    0.00   48.64  112.38   13.15   30.64    0.00   18.00   74.33
 2017 211   262     0     1    36.7   45.9   44.2    1.7    0.27    0.27    0.23    0.24    0.24    0.40    3.21    5.09    0.58    0.61    0.10    0.04    0.02    0.01    0.01    0.00   48.83  112.48   13.16   30.69    0.00   18.14   75.51
 2017 212   263     0     1    37.6   44.0   42.4    1.6    0.29    0.28    0.23    0.24    0.24    0.35    2.95    5.01    0.56    0.60    0.10    0.04    0.02    0.01    0.01    0.00   49.03  112.59   13.17   30.74    0.00   18.29   76.65
 2017 213   264     0     1    38.3   42.4   40.8    1.6    0.30    0.28    0.24    0.23    0.24    0.32    2.71    4.94    0.55    0.58    0.10    0.04    0.02    0.01    0.01    0.00   49.23  112.72   13.18   30.79    0.00   18.45   77.73
 2017 214   265     0     1    38.9   40.9   39.3    1.6    0.31    0.29    0.24    0.23    0.23    0.28    2.50    4.88    0.53    0.56    0.10    0.04    0.02    0.01    0.01    0.00   49.46  112.87   13.19   30.84    0.00   18.62   78.75
 2017 215   266     0     1    39.4   39.6   38.1    1.5    0.32    0.29    0.24    0.24    0.23    0.26    2.32    4.82    0.51    0.55    0.10    0.04    0.02    0.01    0.01    0.00   49.69  113.04   13.20   30.90    0.00   18.79   79.71
 2017 216   267     0     1    39.9   38.5   37.1    1.4    0.42    0.30    0.25    0.24    0.23    0.25    2.15    4.76    0.42    0.53    0.09    0.04    0.02    0.01    0.01    0.00   49.93  113.28   13.21   30.96    0.00   18.98   80.51
 2017 217   268     0     1    39.9   37.9   36.5    1.4    0.40    0.31    0.26    0.24    0.23    0.26    2.03    4.76    0.35    0.52    0.09    0.04    0.02    0.01    0.01    0.00   50.19  113.52   13.21   31.02    0.00   19.17   81.32
 2017 218   269     0     1    39.9   37.3   36.0    1.3    0.38    0.32    0.26    0.24    0.24    0.26    1.92    4.76    0.30    0.51    0.09    0.03    0.01    0.01    0.01    0.00   50.47  113.77   13.22   31.09    0.00   19.38   82.12
 2017 219   270     0     1    40.2   36.4   35.1    1.3    0.35    0.32    0.26    0.25    0.24    0.25    1.79    4.72    0.27    0.51    0.09    0.03    0.01    0.01    0.01    0.00   50.73  113.99   13.22   31.15    0.00   19.58   82.88
 2017 220   271     0     1    40.5   35.6   34.5    1.1    0.34    0.40    0.26    0.25    0.24    0.25    1.66    4.68    0.24    0.42    0.08    0.03    0.01    0.01    0.01    0.00   50.98  114.32   13.23   31.22    0.00   19.77   83.58
 2017 221   272     0     1    40.7   34.8   33.8    1.0    0.33    0.36    0.26    0.25    0.24    0.25    1.56    4.64    0.23    0.37    0.08    0.03    0.01    0.01    0.01    0.00   51.22  114.60   13.23   31.27    0.00   19.94   84.34
 2017 222   273     0     1    40.8   34.2   33.2    1.0    0.32    0.34    0.26    0.25    0.24    0.26    1.47    4.62    0.22    0.33    0.08    0.03    0.01    0.01    0.01    0.00   51.43  114.83   13.23   31.33    0.00   20.10   85.02
 2017 223   274     0     1    40.9   33.6   32.7    0.9    0.32    0.33    0.26    0.25    0.24    0.26    1.38    4.61    0.21    0.30    0.07    0.03    0.01    0.01    0.01    0.00   51.64  115.04   13.23   31.38    0.00   20.26   85.66
 2017 224   275     0     1    40.9   33.2   32.3    0.9    0.32    0.33    0.26    0.25    0.24    0.26    1.31    4.59    0.20    0.28    0.07    0.03    0.01    0.01    0.01    0.00   51.86  115.25   13.24   31.43    0.00   20.42   86.26
 2017 225   276     0     1    40.9   32.8   31.9    0.8    0.32    0.32    0.26    0.25    0.24    0.26    1.25    4.58    0.20    0.26    0.07    0.03    0.01    0.01    0.01    0.00   52.08  115.45   13.24   31.49    0.00   20.59   86.85
 2017 226   277     0     1    40.9   32.4   31.6    0.8    0.32    0.32    0.26    0.25    0.24    0.25    1.18    4.58    0.19    0.24    0.07    0.03    0.01    0.01    0.01    0.00   52.30  115.65   13.24   31.54    0.00   20.76   87.41
 2017 227   278     0     1    40.9   32.0   31.3    0.7    0.32    0.31    0.27    0.25    0.25    0.26    1.12    4.57    0.19    0.23    0.06    0.03    0.01    0.01    0.01    0.00   52.51  115.86   13.24   31.59    0.00   20.92   87.92
 2017 228   279     0     1    40.9   31.6   30.9    0.7    0.32    0.31    0.26    0.25    0.25    0.26    1.06    4.56    0.19    0.22    0.05    0.03    0.01    0.01    0.01    0.00   52.72  116.05   13.24   31.64    0.00   21.07   88.44
 2017 229   280     0     1    40.9   31.3   30.6    0.7    0.32    0.31    0.26    0.25    0.25    0.26    1.01    4.55    0.18    0.21    0.04    0.03    0.01    0.01    0.01    0.00   52.92  116.23   13.24   31.70    0.00   21.23   88.93
 2017 230   281     0     1    40.9   31.0   30.3    0.6    0.20    0.33    0.28    0.26    0.25    0.26    0.96    4.53    0.18    0.20    0.04    0.02    0.01    0.01    0.01    0.00   53.13  116.42   13.24   31.75    0.00   21.38   89.41
 2017 231   282     0     1    40.9   30.7   30.0    0.7    0.22    0.30    0.25    0.26    0.25    0.25    0.91    4.53    0.21    0.23    0.04    0.02    0.01    0.01    0.01    0.00   53.31  116.49   13.24   31.79    0.00   21.52   89.84
 2017 232   283     0     1    40.9   30.5   29.7    0.8    0.24    0.26    0.26    0.26    0.25    0.25    0.86    4.53    0.24    0.26    0.04    0.02    0.01    0.01    0.01    0.00   53.52  116.58   13.24   31.84    0.00   21.67   90.21
 2017 233   284     0     1    40.9   30.3   29.5    0.8    0.27    0.26    0.26    0.26    0.25    0.25    0.82    4.52    0.27    0.29    0.05    0.02    0.01    0.01    0.01    0.00   53.74  116.68   13.24   31.90    0.00   21.84   90.51
 2017 234   285     0     1    40.9   30.2   29.3    0.9    0.25    0.29    0.26    0.26    0.25    0.25    0.78    4.52    0.30    0.32    0.05    0.02    0.01    0.01    0.01    0.00   53.97  116.80   13.24   31.96    0.00   22.02   90.83
 2017 235   286     0     1    40.9   30.0   29.1    1.0    0.24    0.27    0.27    0.26    0.25    0.25    0.74    4.52    0.33    0.35    0.05    0.02    0.01    0.01    0.00    0.00   54.17  116.89   13.25   32.01    0.00   22.16   91.14
 2017 236   287     0     1    40.9   29.9   28.9    1.0    0.26    0.25    0.26    0.26    0.25    0.25    0.70    4.52    0.35    0.38    0.05    0.01    0.01    0.01    0.00    0.00   54.36  116.97   13.25   32.05    0.00   22.30   91.43
 2017 237   288     0     1    40.9   29.8   28.7    1.1    0.28    0.26    0.26    0.26    0.25    0.25    0.66    4.51    0.37    0.40    0.05    0.01    0.01    0.01    0.00    0.00   54.55  117.07   13.26   32.10    0.00   22.45   91.68
 2017 238   289     0     1    40.9   29.6   28.5    1.1    0.28    0.26    0.26    0.26    0.25    0.25    0.63    4.51    0.39    0.43    0.05    0.01    0.01    0.01    0.00    0.00   54.74  117.17   13.26   32.15    0.00   22.59   91.94
 2017 239   290     0     1    40.9   29.5   28.4    1.1    0.29    0.27    0.26    0.26    0.25    0.25    0.60    4.51    0.40    0.44    0.05    0.01    0.01    0.01    0.00    0.00   54.94  117.28   13.26   32.20    0.00   22.74   92.21
 2017 240   291     0     1    40.9   29.4   28.2    1.2    0.29    0.27    0.26    0.25    0.25    0.25    0.57    4.51    0.41    0.46    0.05    0.01    0.01    0.01    0.00    0.00   55.13  117.40   13.27   32.24    0.00   22.88   92.47
 2017 241   292     0     1    40.9   29.3   28.1    1.2    0.24    0.29    0.26    0.25    0.25    0.25    0.54    4.50    0.43    0.47    0.05    0.01    0.01    0.01    0.00    0.00   55.30  117.51   13.27   32.29    0.00   23.01   92.73
 2017 242   293     0     1    40.9   29.1   27.9    1.2    0.24    0.27    0.27    0.25    0.25    0.25    0.51    4.50    0.44    0.49    0.04    0.01    0.01    0.01    0.00    0.00   55.45  117.60   13.27   32.32    0.00   23.12   92.97
 2017 243   294     0     1    40.9   29.0   27.8    1.2    0.26    0.26    0.25    0.26    0.25    0.25    0.49    4.50    0.46    0.50    0.04    0.01    0.01    0.01    0.00    0.00   55.59  117.67   13.28   32.36    0.00   23.23   93.20
 2017 244   295     0     1    40.9   28.9   27.7    1.3    0.28    0.26    0.26    0.25    0.25    0.25    0.47    4.49    0.47    0.52    0.05    0.01    0.01    0.01    0.00    0.00   55.75  117.75   13.28   32.40    0.00   23.35   93.39
 2017 245   296     0     1    40.9   28.8   27.6    1.3    0.28    0.27    0.26    0.26    0.25    0.25    0.44    4.49    0.48    0.53    0.04    0.01    0.01    0.01    0.00    0.00   55.92  117.86   13.28   32.44    0.00   23.48   93.60
 2017 246   297     0     1    40.9   28.7   27.5    1.3    0.29    0.27    0.26    0.25    0.25    0.25    0.42    4.49    0.49    0.53    0.04    0.01    0.01    0.01    0.00    0.00   56.09  117.98   13.29   32.49    0.00   23.61   93.83
 2017 247   298     0     1    40.9   28.6   27.4    1.3    0.30    0.27    0.26    0.25    0.25    0.25    0.40    4.49    0.49    0.53    0.04    0.01    0.01    0.01    0.00    0.00   56.27  118.10   13.29   32.53    0.00   23.74   94.06
 2017 248   299     0     1    40.9   28.5   27.3    1.3    0.30    0.28    0.26    0.25    0.25    0.25    0.39    4.48    0.49    0.52    0.03    0.01    0.01    0.01    0.00    0.00   56.44  118.22   13.29   32.57    0.00   23.86   94.30
 2017 249   300     0     1    40.9   28.4   27.2    1.2    0.38    0.28    0.26    0.25    0.25    0.25    0.37    4.48    0.42    0.52    0.03    0.01    0.01    0.01    0.00    0.00   56.62  118.41   13.29   32.62    0.00   24.00   94.53
 2017 250   301     0     1    40.9   28.3   27.1    1.2    0.36    0.29    0.26    0.25    0.25    0.25    0.35    4.47    0.37    0.51    0.03    0.01    0.01    0.01    0.00    0.00   56.81  118.58   13.29   32.67    0.00   24.14   94.82
 2017 251   302     0     1    40.9   28.1   27.0    1.1    0.34    0.29    0.26    0.25    0.25    0.25    0.34    4.47    0.32    0.51    0.03    0.01    0.01    0.01    0.00    0.00   56.99  118.75   13.29   32.71    0.00   24.27   95.09
 2017 252   303     0     1    40.9   28.0   26.9    1.1    0.33    0.29    0.26    0.25    0.25    0.25    0.33    4.47    0.29    0.50    0.03    0.01    0.01    0.01    0.00    0.00   57.16  118.90   13.29   32.76    0.00   24.41   95.34
 2017 253   304     0     1    40.9   27.9   26.8    1.1    0.33    0.29    0.26    0.25    0.25    0.25    0.31    4.46    0.27    0.50    0.03    0.01    0.01    0.01    0.00    0.00   57.33  119.06   13.29   32.80    0.00   24.54   95.58
 2017 254   305     0     1    40.9   27.8   26.8    1.0    0.32    0.29    0.26    0.25    0.25    0.25    0.31    4.45    0.25    0.50    0.03    0.01    0.01    0.01    0.00    0.00   57.50  119.20   13.29   32.84    0.00   24.66   95.81
 2017 255   306     0     1    40.9   27.7   26.7    1.0    0.31    0.34    0.26    0.25    0.25    0.25    0.31    4.43    0.23    0.44    0.03    0.01    0.01    0.01    0.00    0.00   57.65  119.40   13.29   32.88    0.00   24.77   96.03
 2017 256   307     0     1    40.9   27.5   26.6    0.9    0.30    0.33    0.26    0.25    0.25    0.25    0.29    4.44    0.22    0.40    0.03    0.01    0.01    0.01    0.00    0.00   57.80  119.59   13.29   32.92    0.00   24.89   96.32
 2017 257   308     0     1    40.9   27.4   26.6    0.8    0.30    0.33    0.26    0.25    0.25    0.25    0.28    4.44    0.20    0.36    0.03    0.01    0.01    0.01    0.00    0.00   57.96  119.78   13.29   32.96    0.00   25.00   96.58
 2017 258   309     0     1    40.9   27.3   26.5    0.7    0.30    0.33    0.26    0.25    0.25    0.25    0.26    4.44    0.18    0.32    0.03    0.01    0.01    0.01    0.00    0.00   58.11  119.96   13.29   32.99    0.00   25.12   96.83
 2017 259   310     0     1    40.9   27.1   26.5    0.7    0.29    0.32    0.26    0.25    0.25    0.25    0.25    4.44    0.16    0.29    0.03    0.01    0.01    0.01    0.00    0.00   58.27  120.13   13.29   33.03    0.00   25.24   97.05
 2017 260   311     0     1    40.9   27.1   26.5    0.6    0.29    0.32    0.26    0.25    0.25    0.25    0.25    4.44    0.14    0.27    0.03    0.01    0.01    0.01    0.00    0.00   58.43  120.30   13.29   33.07    0.00   25.36   97.22
 2017 261   312     0     1    40.9   27.1   26.5    0.6    0.29    0.32    0.26    0.25    0.25    0.25    0.25    4.44    0.12    0.25    0.03    0.01    0.01    0.01    0.00    0.00   58.61  120.48   13.29   33.12    0.00   25.49   97.38
 2017 262   313     0     1    40.9   27.0   26.5    0.5    0.29    0.32    0.26    0.25    0.25    0.25    0.25    4.44    0.10    0.23    0.03    0.01    0.01    0.01    0.00    0.00   58.79  120.66   13.29   33.16    0.00   25.63   97.55
 2017 263   314     0     1    40.9   27.0   26.5    0.5    0.32    0.32    0.26    0.25    0.25    0.25    0.25    4.45    0.08    0.21    0.03    0.01    0.01    0.01    0.00    0.00   58.97  120.83   13.29   33.21    0.00   25.76   97.70
 2017 264   315     0     1    40.9   27.0   26.5    0.5    0.28    0.31    0.26    0.25    0.25    0.25    0.25    4.45    0.09    0.20    0.03    0.01    0.01    0.01    0.00    0.00   59.17  121.00   13.29   33.26    0.00   25.91   97.89
 2017 265   316     0     1    40.9   27.0   26.5    0.5    0.28    0.31    0.26    0.25    0.25    0.25    0.25    4.45    0.10    0.19    0.03    0.01    0.01    0.01    0.00    0.00   59.37  121.16   13.29   33.31    0.00   26.06   98.05
 2017 266   317     0     1    40.9   27.0   26.5    0.5    0.29    0.31    0.26    0.25    0.25    0.25    0.25    4.45    0.09    0.18    0.03    0.01    0.01    0.01    0.00    0.00   59.57  121.33   13.29   33.36    0.00   26.21   98.20
 2017 267   318     0     1    40.9   27.0   26.5    0.5    0.29    0.31    0.26    0.25    0.25    0.25    0.25    4.45    0.09    0.17    0.03    0.01    0.01    0.01    0.00    0.00   59.77  121.49   13.29   33.41    0.00   26.36   98.36
 2017 268   319     0     1    40.9   27.0   26.5    0.4    0.29    0.31    0.26    0.25    0.25    0.25    0.25    4.45    0.08    0.16    0.02    0.01    0.01    0.01    0.00    0.00   59.98  121.67   13.29   33.46    0.00   26.52   98.52
 2017 269   320     0     1    40.9   27.0   26.5    0.4    0.28    0.31    0.26    0.25    0.25    0.25    0.25    4.45    0.06    0.15    0.02    0.01    0.01    0.00    0.00    0.00   60.19  121.85   13.29   33.51    0.00   26.68   98.69
 2017 270   321     0     1    40.9   27.0   26.6    0.4    0.31    0.31    0.26    0.26    0.25    0.25    0.25    4.46    0.05    0.15    0.02    0.01    0.01    0.00    0.00    0.00   60.41  122.04   13.29   33.56    0.00   26.85   98.84
 2017 271   322     0     1    40.9   27.0   26.6    0.4    0.34    0.31    0.26    0.25    0.25    0.25    0.25    4.46    0.04    0.14    0.02    0.01    0.01    0.00    0.00    0.00   60.62  122.21   13.29   33.61    0.00   27.01   98.99
 2017 272   323     0     1    40.9   27.0   26.6    0.4    0.36    0.31    0.26    0.25    0.25    0.25    0.25    4.46    0.04    0.14    0.02    0.01    0.01    0.00    0.00    0.00   60.82  122.37   13.29   33.66    0.00   27.16   99.14
 2017 273   324     0     1    40.9   27.0   26.6    0.4    0.38    0.30    0.26    0.25    0.25    0.25    0.25    4.46    0.03    0.14    0.02    0.01    0.01    0.00    0.00    0.00   60.99  122.51   13.29   33.70    0.00   27.29   99.28
 2017 274   325     0     1    40.9   27.0   26.6    0.4    0.39    0.29    0.26    0.25    0.25    0.25    0.25    4.46    0.03    0.14    0.02    0.01    0.01    0.01    0.00    0.00   61.14  122.62   13.29   33.74    0.00   27.40   99.39
 2017 275   326     0     1    40.9   27.0   26.6    0.4    0.40    0.28    0.26    0.25    0.25    0.25    0.25    4.46    0.02    0.14    0.02    0.01    0.01    0.01    0.00    0.00   61.27  122.72   13.29   33.77    0.00   27.50   99.49
 2017 276   327     0     1    40.9   27.0   26.6    0.4    0.41    0.28    0.26    0.25    0.25    0.25    0.25    4.47    0.02    0.14    0.02    0.01    0.01    0.01    0.00    0.00   61.38  122.81   13.29   33.80    0.00   27.59   99.58
 2017 277   328     0     1    40.9   27.0   26.7    0.4    0.42    0.30    0.26    0.26    0.25    0.25    0.25    4.47    0.02    0.14    0.02    0.01    0.01    0.01    0.00    0.00   61.48  122.88   13.29   33.82    0.00   27.66   99.58
 2017 278   329     0     1    40.9   27.1   26.8    0.4    0.42    0.33    0.26    0.26    0.26    0.25    0.25    4.47    0.02    0.14    0.02    0.01    0.01    0.01    0.00    0.00   61.59  122.97   13.29   33.84    0.00   27.74   99.58
 2017 279   330     0     1    40.9   27.2   26.8    0.4    0.43    0.36    0.27    0.26    0.26    0.26    0.26    4.47    0.02    0.13    0.02    0.01    0.01    0.01    0.00    0.00   61.70  123.05   13.29   33.87    0.00   27.83   99.58
 2017 280   331     0     1    40.9   27.3   26.9    0.4    0.44    0.39    0.28    0.26    0.26    0.26    0.26    4.47    0.02    0.13    0.02    0.01    0.01    0.01    0.00    0.00   61.81  123.15   13.29   33.90    0.00   27.91   99.58
 2017 281   332     0     1    40.9   27.4   27.0    0.3    0.45    0.42    0.28    0.27    0.26    0.26    0.26    4.47    0.02    0.13    0.02    0.01    0.01    0.01    0.00    0.00   61.93  123.24   13.29   33.92    0.00   28.01   99.58
 2017 282   333     0     1    40.9   27.5   27.1    0.4    0.46    0.45    0.29    0.27    0.26    0.26    0.26    4.47    0.04    0.13    0.02    0.01    0.01    0.01    0.00    0.00   62.07  123.34   13.29   33.96    0.00   28.12   99.58
 2017 283   334     0     1    40.9   27.6   27.2    0.4    0.47    0.48    0.29    0.27    0.27    0.26    0.26    4.47    0.08    0.12    0.02    0.01    0.01    0.01    0.00    0.00   62.22  123.43   13.29   33.99    0.00   28.23   99.58
 2017 284   335     0     1    40.9   27.7   27.3    0.4    0.52    0.49    0.30    0.28    0.27    0.26    0.27    4.47    0.10    0.12    0.02    0.01    0.01    0.01    0.00    0.00   62.37  123.53   13.29   34.02    0.00   28.34   99.58
 2017 285   336     0     1    40.9   27.8   27.4    0.4    0.21    0.45    0.46    0.28    0.27    0.26    0.27    4.47    0.12    0.12    0.02    0.01    0.01    0.01    0.00    0.00   62.51  123.63   13.29   34.06    0.00   28.45   99.58
 2017 286   337     0     1    40.9   27.9   27.5    0.5    0.21    0.43    0.47    0.29    0.27    0.27    0.28    4.47    0.14    0.14    0.03    0.01    0.01    0.01    0.00    0.00   62.62  123.67   13.29   34.08    0.00   28.54   99.58
 2017 287   338     0     1    40.9   28.0   27.5    0.5    0.23    0.43    0.47    0.30    0.27    0.27    0.28    4.46    0.16    0.16    0.03    0.01    0.01    0.01    0.00    0.00   62.72  123.70   13.29   34.10    0.00   28.62   99.58
 2017 288   339     0     1    40.9   28.1   27.5    0.5    0.11    0.28    0.41    0.39    0.38    0.27    0.29    4.46    0.17    0.18    0.03    0.01    0.01    0.01    0.00    0.00   62.82  123.74   13.29   34.13    0.00   28.70   99.58
