*SOM C DAILY OUTPUT FILE

*DSSAT Cropping System Model Ver. 4.6.1.000 -release      APR 22, 2019; 09:45:14
                                                                                
*RUN   1        : Sim1                      MZCER046 UINT1601    1              
 MODEL          : MZCER046 - Maize                                              
 EXPERIMENT     : UINT1601 MZ N TRACK                                           
 DATA PATH      :                                                               
 TREATMENT  1   : Sim1                      MZCER046                            
  
!                                                                                                                                                                                                                                                                                                                                                                                                                                                  Cumul.
!               <---- SOM C in top layers ----> <- SOM + LIT C in top layers -> <------------ Total Soil Organic Carbon (SOM + LIT) ------------> <--------- Active Soil Organic Carbon (SOM1) ---------> <---- Intermediate Soil Organic C (SOM2) -----> <------- Passive Soil Organic C (SOM3) -------> <------------------ Litter Carbon --------------------> <-------------- Metabolic Litter Carbon --------------> <------------- Structural Litter Carbon -------------->  Resid.  <-Accum. CO2->
!               20cm-kg  20cm-% 40cm-kg  40cm-% 20cm-kg  20cm-% 40cm-kg  40cm-%     Total Surface    Soil     0-5    5-15   15-30   30-45  45-150 Surface    Soil     0-5    5-15   15-30   30-45  45-150    Soil     0-5    5-15   15-30   30-45  45-150    Soil     0-5    5-15   15-30   30-45  45-150 Surface    Soil     0-5    5-15   15-30   30-45  45-150 Surface    Soil     0-5    5-15   15-30   30-45  45-150 Surface    Soil     0-5    5-15   15-30   30-45  45-150 (kg/ha) Surface    Soil
@YEAR DOY   DAS  SCS20D  SC%20D  SCS40D  SC%40D  SLC20D  SL%20D  SLC40D  SL%40D      SOCD    SC0D    SCTD    SC1D    SC2D    SC3D    SC4D   SC5+D   S1C0D   S1CTD   S1C1D   S1C2D   S1C3D   S1C4D  S1C5+D   S2CTD   S2C1D   S2C2D   S2C3D   S2C4D  S2C5+D   S3CTD   S3C1D   S3C2D   S3C3D   S3C4D  S3C5+D    LC0D    LCTD    LC1D    LC2D    LC3D    LC4D   LC5+D   MEC0D   MECTD   MEC1D   MEC2D   MEC3D   MEC4D  MEC5+D   STC0D   STCTD   STC1D   STC2D   STC3D   STC4D  STC5+D    RESC   CO20C   CO2SC
 2016 315     0   26115   0.931   10982   0.388   28092   1.001   10982   0.388     64679       0   64679    8709   15738   10935    5538   23759       0      63       8      14      11       6      24    1191     153     274     208     105     451   61448    7889   14132   10716    5427   23284       0    1977     659    1318       0       0       0       0    1466     489     978       0       0       0       0     510     170     340       0       0       0       0       0       0
 2016 316     1   26121   0.931   10982   0.388   28084   1.001   10982   0.388     64671       0   64671    8706   15733   10935    5538   23759       0      69      10      18      11       6      24    1191     153     274     208     105     451   61448    7889   14132   10716    5427   23284       0    1963     654    1309       0       0       0       0    1453     484     969       0       0       0       0     510     170     340       0       0       0       0       0       8
 2016 317     2   26127   0.931   10982   0.388   28076   1.001   10982   0.388     64663       0   64663    8703   15728   10935    5538   23759       0      75      13      22      11       6      24    1192     153     274     208     105     451   61447    7889   14132   10716    5427   23284       0    1949     649    1301       0       0       0       0    1440     479     961       0       0       0       0     510     170     340       0       0       0       0       0      15
 2016 318     3   26134   0.932   10982   0.388   28069   1.001   10982   0.388     64655       0   64655    8700   15724   10934    5538   23759       0      81      15      26      11       6      24    1192     153     274     208     105     451   61447    7889   14132   10716    5427   23284       0    1935     643    1292       0       0       0       0    1426     474     952       0       0       0       0     509     170     340       0       0       0       0       0      23
 2016 319     4   26140   0.932   10982   0.388   28061   1.000   10982   0.388     64648       0   64648    8698   15719   10934    5538   23759       0      87      17      30      11       6      24    1192     153     274     208     105     451   61447    7889   14131   10716    5427   23284       0    1922     638    1284       0       0       0       0    1413     469     944       0       0       0       0     509     170     339       0       0       0       0       0      31
 2016 320     5   26145   0.932   10982   0.388   28055   1.000   10982   0.388     64641       0   64641    8695   15715   10934    5538   23759       0      92      19      33      11       6      24    1192     153     274     208     105     452   61447    7889   14131   10716    5427   23284       0    1910     634    1276       0       0       0       0    1401     464     937       0       0       0       0     509     169     339       0       0       0       0       0      38
 2016 321     6   26150   0.932   10982   0.388   28048   1.000   10982   0.388     64634       0   64634    8693   15711   10934    5538   23759       0      98      21      36      11       6      24    1192     153     274     208     105     452   61447    7889   14131   10716    5427   23283       0    1898     629    1269       0       0       0       0    1389     460     930       0       0       0       0     508     169     339       0       0       0       0       0      45
 2016 322     7   26156   0.932   10982   0.388   28041   1.000   10982   0.388     64627       0   64627    8690   15707   10934    5538   23758       0     103      23      40      11       6      24    1192     153     275     208     105     452   61446    7889   14131   10716    5427   23283       0    1886     625    1261       0       0       0       0    1378     456     922       0       0       0       0     508     169     339       0       0       0       0       0      51
 2016 323     8   26161   0.933   10982   0.388   28035   0.999   10982   0.388     64621       0   64621    8688   15703   10934    5538   23758       0     108      25      43      11       6      24    1193     153     275     208     105     452   61446    7889   14131   10716    5427   23283       0    1875     620    1254       0       0       0       0    1367     451     916       0       0       0       0     508     169     339       0       0       0       0       0      57
 2016 324     9   26166   0.933   10981   0.388   28029   0.999   10981   0.388     64614       0   64614    8685   15699   10934    5538   23758       0     113      27      46      11       6      24    1193     153     275     208     105     452   61446    7889   14131   10716    5427   23283       0    1862     616    1247       0       0       0       0    1355     447     908       0       0       0       0     507     169     338       0       0       0       0       0      64
 2016 325    10   26173   0.933   10981   0.388   28020   0.999   10981   0.388     64606       0   64606    8682   15694   10934    5538   23758       0     119      30      50      11       6      24    1193     153     275     208     105     452   61446    7889   14131   10716    5427   23283       0    1848     610    1237       0       0       0       0    1341     442     899       0       0       0       0     507     169     338       0       0       0       0       0      73
 2016 326    11   26180   0.933   10981   0.388   28012   0.999   10981   0.388     64597       0   64597    8679   15688   10934    5538   23758       0     126      32      54      11       6      24    1193     154     275     208     105     452   61446    7889   14131   10716    5427   23283       0    1832     604    1228       0       0       0       0    1326     436     890       0       0       0       0     506     169     338       0       0       0       0       0      81
 2016 327    12   26185   0.934   10981   0.388   28005   0.998   10981   0.388     64590       0   64590    8676   15684   10934    5538   23758       0     132      34      57      11       6      24    1193     154     275     208     105     452   61445    7889   14131   10716    5427   23283       0    1820     600    1220       0       0       0       0    1314     431     883       0       0       0       0     506     168     337       0       0       0       0       0      88
 2016 328    13   26189   0.934   10981   0.388   28000   0.998   10981   0.388     64585       0   64585    8674   15681   10934    5538   23758       0     136      36      60      11       6      24    1194     154     275     208     105     452   61445    7889   14131   10716    5427   23283       0    1810     596    1214       0       0       0       0    1305     428     877       0       0       0       0     506     168     337       0       0       0       0       0      94
 2016 329    14   26193   0.934   10981   0.388   27995   0.998   10981   0.388     64580       0   64580    8673   15678   10934    5538   23758       0     139      37      62      11       6      24    1194     154     275     208     105     452   61445    7889   14131   10716    5427   23282       0    1802     593    1209       0       0       0       0    1297     425     872       0       0       0       0     505     168     337       0       0       0       0       0      98
 2016 330    15   26196   0.934   10981   0.388   27992   0.998   10981   0.388     64577       0   64577    8671   15676   10934    5538   23758       0     142      38      64      11       6      24    1194     154     275     208     105     452   61445    7889   14131   10716    5427   23282       0    1797     591    1206       0       0       0       0    1291     423     869       0       0       0       0     505     168     337       0       0       0       0       0     102
 2016 331    16   26197   0.934   10981   0.388   27990   0.998   10981   0.388     64575       0   64575    8670   15675   10934    5538   23758       0     143      39      65      11       6      23    1194     154     275     208     105     452   61445    7889   14131   10716    5427   23282       0    1792     589    1203       0       0       0       0    1287     421     866       0       0       0       0     505     168     337       0       0       0       0       0     104
 2016 332    17   26199   0.934   10981   0.388   27987   0.998   10981   0.388     64572       0   64572    8669   15673   10934    5538   23757       0     145      39      66      11       6      23    1194     154     275     208     105     452   61445    7889   14131   10715    5427   23282       0    1788     587    1200       0       0       0       0    1283     419     864       0       0       0       0     505     168     337       0       0       0       0       0     107
 2016 333    18   26202   0.934   10981   0.388   27984   0.998   10981   0.388     64569       0   64569    8668   15671   10934    5538   23757       0     148      40      68      11       6      23    1194     154     275     208     105     452   61445    7889   14131   10715    5427   23282       0    1782     585    1197       0       0       0       0    1278     417     860       0       0       0       0     505     168     337       0       0       0       0       0     110
 2016 334    19   26205   0.934   10981   0.388   27981   0.998   10981   0.388     64565       0   64565    8667   15669   10934    5538   23757       0     150      41      69      11       6      23    1194     154     275     208     105     452   61445    7889   14131   10715    5427   23282       0    1776     583    1194       0       0       0       0    1272     415     857       0       0       0       0     504     168     337       0       0       0       0       0     113
 2016 335    20   26209   0.934   10981   0.388   27975   0.997   10981   0.388     64560       0   64560    8666   15665   10934    5538   23757       0     155      42      72      11       6      23    1194     154     276     208     105     452   61444    7889   14131   10715    5427   23282       0    1766     581    1186       0       0       0       0    1262     413     849       0       0       0       0     504     168     336       0       0       0       0       0     119
 2016 336    21   26212   0.934   10981   0.388   27972   0.997   10981   0.388     64556       0   64556    8664   15662   10934    5538   23757       0     158      43      74      11       6      23    1195     154     276     208     105     452   61444    7889   14131   10715    5427   23282       0    1760     578    1181       0       0       0       0    1256     411     845       0       0       0       0     504     168     336       0       0       0       0       0     123
 2016 337    22   26216   0.935   10981   0.388   27967   0.997   10981   0.388     64551       0   64551    8663   15659   10934    5538   23757       0     161      44      77      11       6      23    1195     154     276     208     105     452   61444    7889   14131   10715    5427   23282       0    1751     576    1176       0       0       0       0    1248     408     840       0       0       0       0     504     168     336       0       0       0       0       0     127
 2016 338    23   26219   0.935   10981   0.388   27963   0.997   10981   0.388     64547       0   64547    8661   15656   10934    5538   23757       0     165      46      79      11       6      23    1195     154     276     208     105     452   61444    7889   14131   10715    5427   23282       0    1743     573    1170       0       0       0       0    1240     405     834       0       0       0       0     503     168     336       0       0       0       0       0     132
 2016 339    24   26223   0.935   10981   0.388   27958   0.997   10981   0.388     64542       0   64542    8660   15653   10934    5538   23757       0     168      47      81      11       6      23    1195     154     276     208     105     452   61444    7889   14131   10715    5427   23282       0    1735     570    1165       0       0       0       0    1232     403     829       0       0       0       0     503     167     336       0       0       0       0       0     137
 2016 340    25   26227   0.935   10981   0.388   27954   0.997   10981   0.388     64538       0   64538    8658   15651   10934    5538   23757       0     172      48      84      11       6      23    1195     154     276     208     105     452   61444    7889   14131   10715    5427   23282       0    1727     567    1160       0       0       0       0    1224     400     824       0       0       0       0     503     167     336       0       0       0       0       0     141
 2016 341    26   26229   0.935   10981   0.388   27950   0.996   10981   0.388     64534       0   64534    8657   15648   10934    5538   23757       0     174      49      86      11       6      23    1195     154     276     208     105     452   61444    7889   14131   10715    5427   23282       0    1721     565    1155       0       0       0       0    1218     398     820       0       0       0       0     503     167     335       0       0       0       0       0     145
 2016 342    27   26232   0.935   10981   0.388   27947   0.996   10981   0.388     64531       0   64531    8656   15646   10934    5538   23757       0     177      50      87      11       6      23    1196     154     276     208     105     452   61444    7889   14131   10715    5427   23282       0    1715     564    1151       0       0       0       0    1213     397     816       0       0       0       0     503     167     335       0       0       0       0       0     148
 2016 343    28   26234   0.935   10981   0.388   27944   0.996   10981   0.388     64528       0   64528    8655   15644   10934    5538   23757       0     179      50      89      11       6      23    1196     154     276     208     105     452   61443    7889   14131   10715    5427   23282       0    1710     562    1148       0       0       0       0    1208     395     812       0       0       0       0     502     167     335       0       0       0       0       0     151
 2016 344    29   26236   0.935   10981   0.388   27941   0.996   10981   0.388     64525       0   64525    8655   15642   10934    5538   23757       0     181      51      90      11       6      23    1196     154     276     208     105     452   61443    7889   14131   10715    5427   23281       0    1705     561    1144       0       0       0       0    1203     394     809       0       0       0       0     502     167     335       0       0       0       0       0     154
 2016 345    30   26238   0.935   10981   0.388   27939   0.996   10981   0.388     64523       0   64523    8654   15640   10934    5538   23757       0     183      51      92      11       6      23    1196     154     277     208     105     452   61443    7889   14131   10715    5427   23281       0    1701     559    1141       0       0       0       0    1199     392     806       0       0       0       0     502     167     335       0       0       0       0       0     156
 2016 346    31   26240   0.935   10981   0.388   27937   0.996   10981   0.388     64520       0   64520    8653   15639   10934    5538   23757       0     184      52      93      11       6      23    1196     155     277     208     105     452   61443    7889   14131   10715    5427   23281       0    1697     558    1139       0       0       0       0    1195     391     804       0       0       0       0     502     167     335       0       0       0       0       0     158
 2016 347    32   26242   0.936   10981   0.388   27935   0.996   10981   0.388     64518       0   64518    8653   15638   10934    5538   23756       0     186      52      94      11       6      23    1196     155     277     208     105     452   61443    7889   14131   10715    5427   23281       0    1693     557    1136       0       0       0       0    1191     390     801       0       0       0       0     502     167     335       0       0       0       0       0     160
 2016 348    33   26243   0.936   10981   0.388   27933   0.996   10981   0.388     64516       0   64516    8652   15636   10934    5538   23756       0     187      53      95      11       6      23    1196     155     277     208     105     452   61443    7889   14131   10715    5427   23281       0    1690     556    1134       0       0       0       0    1188     389     799       0       0       0       0     502     167     335       0       0       0       0       0     162
 2016 349    34   26245   0.936   10981   0.388   27931   0.996   10981   0.388     64515       0   64515    8651   15635   10934    5538   23756       0     189      53      96      11       6      23    1196     155     277     208     105     452   61443    7889   14131   10715    5427   23281       0    1687     555    1132       0       0       0       0    1185     388     797       0       0       0       0     502     167     335       0       0       0       0       0     164
 2016 350    35   26246   0.936   10981   0.388   27929   0.996   10981   0.388     64513       0   64513    8651   15634   10934    5538   23756       0     190      54      97      11       6      23    1196     155     277     208     105     452   61443    7889   14131   10715    5427   23281       0    1683     554    1129       0       0       0       0    1182     387     795       0       0       0       0     501     167     335       0       0       0       0       0     166
 2016 351    36   26247   0.936   10981   0.388   27928   0.996   10981   0.388     64511       0   64511    8650   15633   10934    5538   23756       0     191      54      97      11       6      23    1196     155     277     208     105     452   61443    7889   14131   10715    5427   23281       0    1681     553    1128       0       0       0       0    1179     386     793       0       0       0       0     501     167     335       0       0       0       0       0     167
 2016 352    37   26248   0.936   10981   0.388   27926   0.996   10981   0.388     64510       0   64510    8650   15632   10934    5538   23756       0     192      54      98      11       6      23    1196     155     277     208     105     452   61443    7889   14131   10715    5427   23281       0    1678     552    1126       0       0       0       0    1177     386     791       0       0       0       0     501     167     334       0       0       0       0       0     169
 2016 353    38   26249   0.936   10981   0.388   27925   0.996   10981   0.388     64509       0   64509    8650   15631   10934    5538   23756       0     193      55      99      11       6      23    1197     155     277     208     105     452   61443    7889   14131   10715    5427   23281       0    1676     552    1124       0       0       0       0    1175     385     790       0       0       0       0     501     167     334       0       0       0       0       0     170
 2016 354    39   26250   0.936   10981   0.388   27924   0.996   10981   0.388     64507       0   64507    8649   15630   10934    5538   23756       0     194      55      99      11       6      23    1197     155     277     208     105     452   61443    7889   14131   10715    5427   23281       0    1674     551    1123       0       0       0       0    1173     384     788       0       0       0       0     501     167     334       0       0       0       0       0     171
 2016 355    40   26251   0.936   10981   0.388   27923   0.995   10981   0.388     64506       0   64506    8649   15629   10934    5538   23756       0     195      55     100      11       6      23    1197     155     277     208     105     452   61443    7889   14131   10715    5427   23281       0    1672     550    1121       0       0       0       0    1171     384     787       0       0       0       0     501     167     334       0       0       0       0       0     172
 2016 356    41   26252   0.936   10981   0.388   27922   0.995   10981   0.388     64505       0   64505    8649   15629   10934    5538   23756       0     196      56     101      11       6      23    1197     155     277     208     105     452   61443    7889   14131   10715    5427   23281       0    1670     550    1120       0       0       0       0    1169     383     786       0       0       0       0     501     167     334       0       0       0       0       0     174
 2016 357    42   26253   0.936   10981   0.388   27921   0.995   10981   0.388     64504       0   64504    8648   15628   10934    5538   23756       0     197      56     101      11       6      23    1197     155     277     208     105     452   61443    7889   14131   10715    5427   23281       0    1668     549    1119       0       0       0       0    1167     382     785       0       0       0       0     501     167     334       0       0       0       0       0     175
 2016 358    43   26254   0.936   10981   0.388   27920   0.995   10981   0.388     64503       0   64503    8648   15627   10934    5538   23756       0     198      56     102      11       6      23    1197     155     277     208     105     452   61443    7889   14131   10715    5427   23281       0    1666     548    1117       0       0       0       0    1165     382     783       0       0       0       0     501     167     334       0       0       0       0       0     176
 2016 359    44   26255   0.936   10981   0.388   27918   0.995   10981   0.388     64501       0   64501    8648   15626   10934    5538   23756       0     199      56     103      11       6      23    1197     155     277     208     105     452   61443    7889   14131   10715    5427   23281       0    1663     548    1116       0       0       0       0    1163     381     781       0       0       0       0     501     167     334       0       0       0       0       0     177
 2016 360    45   26256   0.936   10981   0.388   27917   0.995   10981   0.388     64500       0   64500    8647   15625   10934    5538   23756       0     200      57     103      11       6      23    1197     155     277     208     105     452   61443    7889   14131   10715    5427   23281       0    1661     547    1113       0       0       0       0    1160     381     779       0       0       0       0     501     167     334       0       0       0       0       0     179
 2016 361    46   26257   0.936   10981   0.388   27915   0.995   10981   0.388     64498       0   64498    8647   15624   10934    5538   23756       0     201      57     104      11       6      23    1197     155     277     208     105     452   61442    7889   14131   10715    5427   23281       0    1658     547    1111       0       0       0       0    1157     380     777       0       0       0       0     501     167     334       0       0       0       0       0     181
 2016 362    47   26259   0.936   10981   0.388   27913   0.995   10981   0.388     64496       0   64496    8646   15622   10934    5538   23756       0     202      57     105      11       6      23    1197     155     277     208     105     452   61442    7889   14131   10715    5427   23281       0    1654     546    1109       0       0       0       0    1154     379     775       0       0       0       0     500     167     334       0       0       0       0       0     183
 2016 363    48   26261   0.936   10981   0.388   27911   0.995   10981   0.388     64494       0   64494    8646   15621   10934    5538   23756       0     204      58     107      11       6      23    1197     155     277     208     105     452   61442    7889   14131   10715    5427   23281       0    1650     544    1106       0       0       0       0    1150     378     772       0       0       0       0     500     167     334       0       0       0       0       0     185
 2016 364    49   26263   0.936   10981   0.388   27909   0.995   10981   0.388     64491       0   64491    8645   15619   10934    5538   23756       0     206      58     108      11       6      23    1197     155     277     208     105     452   61442    7889   14131   10715    5427   23281       0    1646     543    1103       0       0       0       0    1146     376     769       0       0       0       0     500     166     334       0       0       0       0       0     187
 2016 365    50   26265   0.936   10981   0.388   27906   0.995   10981   0.388     64489       0   64489    8644   15617   10934    5538   23756       0     208      59     109      11       6      23    1197     155     278     208     105     452   61442    7889   14131   10715    5427   23281       0    1641     541    1100       0       0       0       0    1141     375     766       0       0       0       0     500     166     334       0       0       0       0       0     190
 2016 366    51   26267   0.936   10981   0.388   27903   0.995   10981   0.388     64486       0   64486    8643   15616   10934    5538   23756       0     210      60     111      11       6      23    1198     155     278     208     105     452   61442    7889   14131   10715    5427   23281       0    1636     540    1097       0       0       0       0    1136     373     763       0       0       0       0     500     166     333       0       0       0       0       0     193
 2017 001    52   26269   0.937   10981   0.388   27900   0.995   10981   0.388     64483       0   64483    8642   15614   10934    5538   23756       0     212      60     112      11       6      23    1198     155     278     208     105     452   61442    7889   14131   10715    5427   23281       0    1631     538    1093       0       0       0       0    1132     372     760       0       0       0       0     500     166     333       0       0       0       0       0     196
 2017 002    53   26271   0.937   10981   0.388   27898   0.995   10981   0.388     64481       0   64481    8641   15612   10934    5538   23756       0     214      61     113      11       6      23    1198     155     278     208     105     452   61442    7889   14131   10715    5427   23281       0    1627     536    1091       0       0       0       0    1127     370     757       0       0       0       0     499     166     333       0       0       0       0       0     198
 2017 003    54   26273   0.937   10981   0.388   27896   0.995   10981   0.388     64478       0   64478    8640   15611   10934    5538   23756       0     216      62     114      11       6      23    1198     155     278     208     105     452   61442    7888   14131   10715    5427   23281       0    1623     535    1088       0       0       0       0    1124     369     755       0       0       0       0     499     166     333       0       0       0       0       0     200
 2017 004    55   26275   0.937   10981   0.388   27893   0.994   10981   0.388     64476       0   64476    8640   15609   10934    5538   23756       0     217      62     115      11       6      23    1198     155     278     208     105     452   61442    7888   14131   10715    5427   23280       0    1619     534    1085       0       0       0       0    1119     368     752       0       0       0       0     499     166     333       0       0       0       0       0     203
 2017 005    56   26277   0.937   10981   0.388   27891   0.994   10981   0.388     64473       0   64473    8639   15608   10934    5538   23756       0     219      63     117      11       6      23    1198     155     278     208     105     452   61442    7888   14131   10715    5427   23280       0    1614     532    1082       0       0       0       0    1115     366     749       0       0       0       0     499     166     333       0       0       0       0       0     205
 2017 006    57   26279   0.937   10981   0.388   27889   0.994   10981   0.388     64471       0   64471    8638   15606   10934    5538   23756       0     221      64     118      11       6      23    1198     155     278     208     105     452   61442    7888   14131   10715    5427   23280       0    1610     531    1079       0       0       0       0    1111     365     746       0       0       0       0     499     166     333       0       0       0       0       0     208
 2017 007    58   26280   0.937   10981   0.388   27886   0.994   10981   0.388     64469       0   64469    8637   15605   10934    5538   23755       0     223      64     119      11       6      23    1199     155     278     208     105     452   61441    7888   14131   10715    5427   23280       0    1606     529    1077       0       0       0       0    1107     363     744       0       0       0       0     499     166     333       0       0       0       0       0     210
 2017 008    59   26282   0.937   10981   0.388   27885   0.994   10981   0.388     64467       0   64467    8637   15603   10934    5538   23755       0     224      65     120      11       6      23    1199     155     278     208     105     452   61441    7888   14131   10715    5427   23280       0    1603     528    1075       0       0       0       0    1104     362     742       0       0       0       0     499     166     333       0       0       0       0       0     212
 2017 009    60   26283   0.937   10981   0.388   27883   0.994   10981   0.388     64465       0   64465    8636   15602   10934    5538   23755       0     225      65     121      11       6      23    1199     155     278     208     105     452   61441    7888   14131   10715    5427   23280       0    1600     528    1073       0       0       0       0    1102     362     740       0       0       0       0     499     166     333       0       0       0       0       0     213
 2017 010    61   26284   0.937   10981   0.388   27882   0.994   10981   0.388     64464       0   64464    8636   15602   10934    5538   23755       0     226      65     121      11       6      23    1199     155     278     208     105     452   61441    7888   14131   10715    5427   23280       0    1598     527    1072       0       0       0       0    1100     361     739       0       0       0       0     498     166     333       0       0       0       0       0     214
 2017 011    62   26284   0.937   10981   0.388   27881   0.994   10981   0.388     64463       0   64463    8636   15601   10934    5538   23755       0     227      65     122      11       6      23    1199     155     278     208     105     452   61441    7888   14131   10715    5427   23280       0    1597     526    1070       0       0       0       0    1098     360     738       0       0       0       0     498     166     333       0       0       0       0       0     215
 2017 012    63   26285   0.937   10981   0.388   27880   0.994   10981   0.388     64462       0   64462    8635   15600   10934    5538   23755       0     227      66     122      11       6      23    1199     155     278     208     105     452   61441    7888   14131   10715    5427   23280       0    1595     526    1069       0       0       0       0    1096     360     736       0       0       0       0     498     166     332       0       0       0       0       0     217
 2017 013    64   26287   0.937   10981   0.388   27878   0.994   10981   0.388     64460       0   64460    8635   15599   10934    5538   23755       0     229      66     123      11       6      23    1199     155     278     208     105     452   61441    7888   14131   10715    5427   23280       0    1592     525    1067       0       0       0       0    1094     359     734       0       0       0       0     498     166     332       0       0       0       0       0     218
 2017 014    65   26288   0.937   10981   0.388   27877   0.994   10981   0.388     64459       0   64459    8634   15598   10934    5538   23755       0     230      66     124      11       6      23    1199     155     278     208     105     452   61441    7888   14131   10715    5427   23280       0    1589     524    1065       0       0       0       0    1091     358     732       0       0       0       0     498     166     332       0       0       0       0       0     220
 2017 015    66   26290   0.937   10981   0.388   27875   0.994   10981   0.388     64457       0   64457    8634   15596   10934    5538   23755       0     231      67     125      11       6      23    1199     155     279     208     105     452   61441    7888   14131   10715    5427   23280       0    1585     523    1062       0       0       0       0    1087     357     730       0       0       0       0     498     166     332       0       0       0       0       0     222
 2017 016    67   26291   0.937   10981   0.388   27873   0.994   10981   0.388     64454       0   64454    8633   15595   10934    5538   23755       0     233      67     126      11       5      23    1199     156     279     208     105     452   61441    7888   14131   10715    5427   23280       0    1581     522    1059       0       0       0       0    1083     356     727       0       0       0       0     498     166     332       0       0       0       0       0     224
 2017 017    68   26293   0.937   10981   0.388   27871   0.994   10981   0.388     64452       0   64452    8633   15593   10934    5538   23755       0     234      68     127      11       5      23    1199     156     279     208     105     452   61441    7888   14131   10715    5427   23280       0    1578     521    1057       0       0       0       0    1080     355     724       0       0       0       0     498     166     332       0       0       0       0       0     226
 2017 018    69   26294   0.937   10981   0.388   27869   0.994   10981   0.388     64451       0   64451    8632   15592   10934    5538   23755       0     236      68     128      11       5      23    1200     156     279     208     105     452   61441    7888   14131   10715    5427   23280       0    1574     520    1054       0       0       0       0    1077     355     722       0       0       0       0     498     166     332       0       0       0       0       0     228
 2017 019    70   26295   0.937   10981   0.388   27867   0.993   10981   0.388     64449       0   64449    8632   15591   10934    5538   23755       0     237      68     129      11       5      23    1200     156     279     208     105     452   61441    7888   14131   10715    5427   23280       0    1572     519    1053       0       0       0       0    1074     354     721       0       0       0       0     498     166     332       0       0       0       0       0     230
 2017 020    71   26297   0.937   10981   0.388   27866   0.993   10981   0.388     64447       0   64447    8631   15590   10934    5538   23755       0     238      69     130      11       5      23    1200     156     279     208     105     452   61441    7888   14131   10715    5427   23280       0    1569     518    1051       0       0       0       0    1072     353     719       0       0       0       0     497     166     332       0       0       0       0       0     231
 2017 021    72   26298   0.938   10981   0.388   27864   0.993   10981   0.388     64445       0   64445    8631   15589   10934    5538   23755       0     239      69     131      11       5      23    1200     156     279     208     105     452   61441    7888   14131   10715    5427   23280       0    1566     517    1048       0       0       0       0    1068     352     717       0       0       0       0     497     166     332       0       0       0       0       0     233
 2017 022    73   26300   0.938   10981   0.388   27862   0.993   10981   0.388     64443       0   64443    8630   15587   10934    5538   23755       0     241      70     132      11       5      23    1200     156     279     208     105     452   61441    7888   14131   10715    5427   23280       0    1562     516    1046       0       0       0       0    1065     351     714       0       0       0       0     497     166     332       0       0       0       0       0     235
 2017 023    74   26302   0.938   10981   0.388   27859   0.993   10981   0.388     64441       0   64441    8629   15586   10934    5538   23755       0     243      70     133      11       5      23    1200     156     279     208     105     452   61440    7888   14131   10715    5427   23280       0    1557     515    1043       0       0       0       0    1060     349     711       0       0       0       0     497     165     332       0       0       0       0       0     238
 2017 024    75   26304   0.938   10981   0.388   27856   0.993   10981   0.388     64437       0   64437    8628   15584   10934    5538   23755       0     245      71     135      11       5      23    1200     156     279     208     105     452   61440    7888   14131   10715    5427   23280       0    1552     513    1039       0       0       0       0    1055     347     708       0       0       0       0     497     165     331       0       0       0       0       0     241
 2017 025    76   26307   0.938   10981   0.388   27853   0.993   10981   0.388     64434       0   64434    8627   15581   10934    5538   23755       0     248      72     136      11       5      23    1201     156     279     208     105     452   61440    7888   14131   10715    5427   23280       0    1546     511    1035       0       0       0       0    1049     345     704       0       0       0       0     497     165     331       0       0       0       0       0     245
 2017 026    77   26310   0.938   10981   0.388   27849   0.993   10981   0.388     64430       0   64430    8625   15579   10934    5538   23755       0     250      73     138      11       5      23    1201     156     280     208     105     452   61440    7888   14131   10715    5427   23280       0    1539     508    1031       0       0       0       0    1043     343     700       0       0       0       0     496     165     331       0       0       0       0       0     248
 2017 027    78   26313   0.938   10981   0.388   27846   0.993   10981   0.388     64427       0   64427    8624   15577   10934    5538   23755       0     253      74     140      11       5      23    1201     156     280     208     105     452   61440    7888   14131   10715    5427   23280       0    1533     507    1027       0       0       0       0    1037     341     696       0       0       0       0     496     165     331       0       0       0       0       0     252
 2017 028    79   26315   0.938   10981   0.388   27843   0.993   10981   0.388     64424       0   64424    8624   15575   10934    5538   23755       0     255      74     141      11       5      23    1201     156     280     208     105     452   61440    7888   14131   10715    5427   23279       0    1528     505    1023       0       0       0       0    1032     340     692       0       0       0       0     496     165     331       0       0       0       0       0     255
 2017 029    80   26317   0.938   10981   0.388   27840   0.993   10981   0.388     64421       0   64421    8623   15573   10934    5538   23755       0     257      75     143      11       5      23    1201     156     280     208     105     452   61440    7888   14130   10715    5427   23279       0    1523     504    1020       0       0       0       0    1028     339     689       0       0       0       0     496     165     331       0       0       0       0       0     257
 2017 030    81   26319   0.938   10981   0.388   27838   0.992   10981   0.388     64419       0   64419    8622   15571   10934    5537   23755       0     258      75     144      11       5      23    1201     156     280     208     105     452   61440    7888   14130   10715    5427   23279       0    1519     502    1017       0       0       0       0    1024     337     687       0       0       0       0     496     165     331       0       0       0       0       0     260
 2017 031    82   26320   0.938   10981   0.388   27836   0.992   10981   0.388     64417       0   64417    8622   15570   10934    5537   23754       0     260      76     145      11       5      23    1202     156     280     208     105     452   61440    7888   14130   10715    5427   23279       0    1516     501    1015       0       0       0       0    1020     336     684       0       0       0       0     495     165     330       0       0       0       0       0     262
 2017 032    83   26322   0.938   10981   0.388   27834   0.992   10981   0.388     64415       0   64415    8621   15569   10934    5537   23754       0     261      76     146      11       5      23    1202     156     280     208     105     452   61440    7888   14130   10715    5427   23279       0    1513     500    1012       0       0       0       0    1017     335     682       0       0       0       0     495     165     330       0       0       0       0       0     263
 2017 033    84   26323   0.938   10981   0.388   27833   0.992   10981   0.388     64414       0   64414    8620   15568   10934    5537   23754       0     262      77     146      11       5      23    1202     156     280     208     105     452   61440    7888   14130   10715    5427   23279       0    1510     499    1010       0       0       0       0    1015     334     680       0       0       0       0     495     165     330       0       0       0       0       0     265
 2017 034    85   26324   0.938   10981   0.388   27831   0.992   10981   0.388     64411       0   64411    8620   15566   10933    5537   23754       0     264      77     147      11       5      23    1202     156     280     208     105     452   61439    7888   14130   10715    5427   23279       0    1506     498    1008       0       0       0       0    1011     333     678       0       0       0       0     495     165     330       0       0       0       0       0     267
 2017 035    86   26326   0.939   10981   0.388   27829   0.992   10981   0.388     64409       0   64409    8619   15565   10933    5537   23754       0     265      77     148      11       5      23    1202     156     280     208     105     452   61439    7888   14130   10715    5427   23279       0    1503     497    1006       0       0       0       0    1008     332     676       0       0       0       0     495     165     330       0       0       0       0       0     269
 2017 036    87   26327   0.939   10981   0.388   27827   0.992   10981   0.388     64408       0   64408    8619   15564   10933    5537   23754       0     267      78     149      11       5      23    1202     156     281     208     105     452   61439    7888   14130   10715    5427   23279       0    1499     496    1003       0       0       0       0    1005     331     673       0       0       0       0     495     165     330       0       0       0       0       0     271
 2017 037    88   26329   0.939   10981   0.388   27825   0.992   10981   0.388     64405       0   64405    8618   15562   10933    5537   23754       0     268      78     150      11       5      23    1202     156     281     208     105     452   61439    7888   14130   10715    5427   23279       0    1496     495    1001       0       0       0       0    1001     330     671       0       0       0       0     495     165     330       0       0       0       0       0     273
 2017 038    89   26331   0.939   10981   0.388   27823   0.992   10981   0.388     64404       0   64404    8617   15561   10933    5537   23754       0     269      79     151      11       5      23    1203     157     281     208     105     452   61439    7888   14130   10715    5427   23279       0    1492     494     999       0       0       0       0     998     329     669       0       0       0       0     494     165     330       0       0       0       0       0     275
 2017 039    90   26332   0.939   10981   0.388   27821   0.992   10981   0.388     64402       0   64402    8617   15560   10933    5537   23754       0     271      79     152      11       5      23    1203     157     281     208     105     452   61439    7888   14130   10715    5427   23279       0    1489     493     997       0       0       0       0     995     328     667       0       0       0       0     494     165     330       0       0       0       0       0     277
 2017 040    91   26333   0.939   10981   0.388   27820   0.992   10981   0.388     64400       0   64400    8616   15559   10933    5537   23754       0     272      80     153      11       5      23    1203     157     281     208     105     452   61439    7888   14130   10715    5427   23279       0    1486     492     995       0       0       0       0     992     327     665       0       0       0       0     494     165     330       0       0       0       0       0     279
 2017 041    92   26335   0.939   10981   0.388   27817   0.992   10981   0.388     64398       0   64398    8615   15557   10933    5537   23754       0     273      80     154      11       5      23    1203     157     281     208     105     452   61439    7888   14130   10715    5427   23279       0    1483     490     992       0       0       0       0     989     326     663       0       0       0       0     494     165     330       0       0       0       0       0     281
 2017 042    93   26337   0.939   10981   0.388   27815   0.992   10981   0.388     64396       0   64396    8615   15556   10933    5537   23754       0     275      81     155      11       5      23    1203     157     281     208     105     452   61439    7888   14130   10715    5427   23279       0    1479     489     990       0       0       0       0     985     325     660       0       0       0       0     494     164     329       0       0       0       0       0     283
 2017 043    94   26338   0.939   10981   0.388   27813   0.992   10981   0.388     64394       0   64394    8614   15555   10933    5537   23754       0     276      81     156      11       5      23    1203     157     281     208     105     452   61439    7888   14130   10715    5427   23279       0    1475     488     987       0       0       0       0     981     323     658       0       0       0       0     494     164     329       0       0       0       0       0     285
 2017 044    95   26340   0.939   10981   0.388   27811   0.991   10981   0.388     64391       0   64391    8613   15553   10933    5537   23754       0     278      82     157      11       5      23    1203     157     281     208     105     452   61439    7888   14130   10715    5427   23279       0    1471     486     984       0       0       0       0     977     322     655       0       0       0       0     494     164     329       0       0       0       0       0     287
 2017 045    96   26342   0.939   10981   0.388   27808   0.991   10981   0.388     64389       0   64389    8612   15552   10933    5537   23754       0     280      82     158      11       5      23    1204     157     281     208     105     452   61439    7888   14130   10715    5427   23279       0    1466     485     982       0       0       0       0     973     321     652       0       0       0       0     493     164     329       0       0       0       0       0     290
 2017 046    97   26344   0.939   10981   0.388   27806   0.991   10981   0.388     64386       0   64386    8612   15550   10933    5537   23754       0     282      83     159      11       5      23    1204     157     281     208     105     452   61439    7888   14130   10715    5427   23279       0    1462     483     979       0       0       0       0     969     319     650       0       0       0       0     493     164     329       0       0       0       0       0     292
 2017 047    98   26346   0.939   10980   0.388   27803   0.991   10980   0.388     64383       0   64383    8610   15548   10933    5537   23754       0     284      84     161      11       5      23    1204     157     282     208     105     452   61439    7888   14130   10715    5427   23279       0    1457     481     975       0       0       0       0     963     317     646       0       0       0       0     493     164     329       0       0       0       0       0     296
 2017 048    99   26349   0.939   10980   0.388   27799   0.991   10980   0.388     64379       0   64379    8609   15545   10933    5537   23754       0     287      85     163      11       5      23    1204     157     282     208     105     452   61438    7888   14130   10715    5427   23279       0    1450     479     971       0       0       0       0     957     315     642       0       0       0       0     493     164     329       0       0       0       0       0     300
 2017 049   100   26353   0.939   10980   0.388   27795   0.991   10980   0.388     64375       0   64375    8608   15543   10933    5537   23754       0     290      86     165      11       5      23    1205     157     282     208     105     452   61438    7888   14130   10715    5427   23279       0    1442     476     966       0       0       0       0     950     312     638       0       0       0       0     492     164     329       0       0       0       0       0     304
 2017 050   101   26355   0.940   10980   0.388   27791   0.991   10980   0.388     64371       0   64371    8606   15541   10933    5537   23754       0     292      87     166      11       5      23    1205     157     282     208     105     452   61438    7888   14130   10715    5427   23279       0    1436     474     962       0       0       0       0     944     310     634       0       0       0       0     492     164     328       0       0       0       0       0     307
 2017 051   102   26359   0.940   10980   0.388   27787   0.991   10980   0.388     64366       0   64366    8605   15538   10933    5537   23754       0     296      88     168      11       5      23    1205     157     282     208     105     452   61438    7888   14130   10715    5427   23279       0    1427     471     957       0       0       0       0     936     307     628       0       0       0       0     492     164     328       0       0       0       0       0     312
 2017 052   103   26364   0.940   10980   0.388   27781   0.990   10980   0.388     64360       0   64360    8602   15534   10933    5537   23754       0     300      90     171      11       5      23    1206     158     283     208     105     452   61438    7888   14130   10715    5427   23278       0    1417     467     950       0       0       0       0     925     303     622       0       0       0       0     491     164     328       0       0       0       0       0     318
 2017 053   104   26369   0.940   10980   0.388   27773   0.990   10980   0.388     64353       0   64353    8600   15529   10933    5537   23753       0     305      91     174      11       5      23    1206     158     283     208     105     452   61438    7888   14130   10715    5427   23278       0    1404     463     941       0       0       0       0     913     299     614       0       0       0       0     491     163     327       0       0       0       0       0     326
 2017 054   105   26377   0.940   10980   0.388   27764   0.990   10980   0.388     64343       0   64343    8597   15523   10933    5537   23753       0     312      93     179      11       5      23    1207     158     284     208     105     452   61437    7888   14130   10714    5427   23278       0    1387     457     930       0       0       0       0     897     294     603       0       0       0       0     490     163     327       0       0       0       0       0     335
 2017 055   106   26386   0.941   10980   0.388   27752   0.989   10980   0.388     64331       0   64331    8593   15515   10933    5537   23753       0     320      96     185      11       5      23    1208     159     284     208     105     452   61437    7888   14130   10714    5426   23278       0    1366     450     916       0       0       0       0     876     287     589       0       0       0       0     489     163     326       0       0       0       0       0     348
 2017 056   107   26396   0.941   10980   0.388   27739   0.989   10980   0.388     64318       0   64318    8589   15506   10933    5537   23753       0     329      99     191      11       5      23    1209     159     285     208     105     452   61437    7888   14130   10714    5426   23278       0    1343     442     901       0       0       0       0     855     280     575       0       0       0       0     488     162     326       0       0       0       0       0     360
 2017 057   108   26403   0.941   10980   0.388   27730   0.989   10980   0.388     64309       0   64309    8586   15500   10933    5537   23753       0     335     101     195      11       5      23    1210     159     286     208     105     452   61437    7888   14130   10714    5426   23278       0    1327     438     889       0       0       0       0     840     276     564       0       0       0       0     488     162     325       0       0       0       0       0     369
 2017 058   109   26408   0.941   10980   0.388   27723   0.988   10980   0.388     64302       0   64302    8584   15494   10933    5537   23753       0     340     102     199      11       5      23    1211     159     286     208     105     452   61436    7888   14130   10714    5426   23278       0    1315     435     880       0       0       0       0     828     273     555       0       0       0       0     487     162     325       0       0       0       0       0     377
 2017 059   110   26412   0.942   10980   0.388   27718   0.988   10980   0.388     64297       0   64297    8583   15491   10933    5537   23753       0     343     103     201      11       5      23    1212     159     287     208     105     452   61436    7888   14130   10714    5426   23278       0    1306     433     873       0       0       0       0     819     271     549       0       0       0       0     487     162     325       0       0       0       0       0     382
 2017 060   111   26415   0.942   10980   0.388   27714   0.988   10980   0.388     64293       0   64293    8582   15488   10933    5537   23753       0     346     104     203      11       5      23    1212     160     287     208     105     452   61436    7888   14130   10714    5426   23278       0    1299     431     868       0       0       0       0     813     269     544       0       0       0       0     486     162     324       0       0       0       0       0     386
 2017 061   112   26418   0.942   10980   0.388   27711   0.988   10980   0.388     64289       0   64289    8581   15485   10933    5537   23753       0     348     104     205      11       5      23    1212     160     287     208     105     452   61436    7888   14130   10714    5426   23278       0    1292     429     864       0       0       0       0     807     267     540       0       0       0       0     486     162     324       0       0       0       0       0     389
 2017 062   113   26420   0.942   10980   0.388   27708   0.988   10980   0.388     64287       0   64287    8580   15484   10933    5537   23753       0     350     105     206      11       5      23    1213     160     287     208     105     452   61436    7888   14130   10714    5426   23278       0    1288     427     861       0       0       0       0     802     266     537       0       0       0       0     486     162     324       0       0       0       0       0     392
 2017 063   114   26422   0.942   10980   0.388   27705   0.988   10980   0.388     64284       0   64284    8579   15482   10933    5537   23753       0     352     106     207      11       5      23    1213     160     287     208     105     452   61436    7888   14130   10714    5426   23278       0    1283     426     858       0       0       0       0     798     264     534       0       0       0       0     485     162     324       0       0       0       0       0     395
 2017 064   115   26424   0.942   10980   0.388   27703   0.988   10980   0.388     64281       0   64281    8578   15480   10933    5537   23753       0     354     106     208      11       5      23    1213     160     288     208     105     452   61436    7888   14130   10714    5426   23278       0    1278     424     854       0       0       0       0     793     262     531       0       0       0       0     485     162     324       0       0       0       0       0     398
 2017 065   116   26426   0.942   10980   0.388   27700   0.988   10980   0.388     64278       0   64278    8577   15479   10933    5537   23753       0     356     107     210      11       5      23    1213     160     288     208     105     452   61436    7888   14130   10714    5426   23277       0    1274     422     851       0       0       0       0     789     261     528       0       0       0       0     485     162     323       0       0       0       0       0     400
 2017 066   117   26428   0.942   10980   0.388   27698   0.987   10980   0.388     64276       0   64276    8576   15477   10933    5537   23753       0     357     107     211      11       5      23    1214     160     288     208     105     452   61435    7888   14130   10714    5426   23277       0    1270     421     849       0       0       0       0     785     259     525       0       0       0       0     485     161     323       0       0       0       0       0     403
 2017 067   118   26430   0.942   10980   0.388   27695   0.987   10980   0.388     64273       0   64273    8576   15475   10933    5537   23753       0     359     108     212      11       5      23    1214     160     288     208     105     452   61435    7888   14130   10714    5426   23277       0    1265     419     846       0       0       0       0     781     258     523       0       0       0       0     485     161     323       0       0       0       0       0     405
 2017 068   119   26432   0.942   10980   0.388   27693   0.987   10980   0.388     64271       0   64271    8575   15474   10933    5537   23752       0     360     109     213      11       5      23    1214     160     288     208     105     452   61435    7888   14130   10714    5426   23277       0    1261     418     843       0       0       0       0     776     256     520       0       0       0       0     484     161     323       0       0       0       0       0     408
 2017 069   120   26434   0.942   10980   0.388   27689   0.987   10980   0.388     64267       0   64267    8573   15472   10933    5537   23752       0     363     109     214      11       5      23    1215     160     289     208     105     452   61435    7888   14130   10714    5426   23277       0    1255     416     839       0       0       0       0     771     254     516       0       0       0       0     484     161     323       0       0       0       0       0     411
 2017 070   121   26438   0.943   10980   0.388   27685   0.987   10980   0.388     64263       0   64263    8572   15469   10933    5537   23752       0     365     110     216      11       5      23    1215     161     289     208     105     452   61435    7888   14130   10714    5426   23277       0    1248     413     835       0       0       0       0     764     252     512       0       0       0       0     484     161     323       0       0       0       0       0     415
 2017 071   122   26441   0.943   10980   0.388   27681   0.987   10980   0.388     64259       0   64259    8570   15466   10933    5537   23752       0     368     111     218      11       5      23    1216     161     289     208     105     452   61435    7888   14130   10714    5426   23277       0    1240     410     830       0       0       0       0     757     249     507       0       0       0       0     483     161     322       0       0       0       0       0     420
 2017 072   123   26443   0.943   10980   0.388   27678   0.987   10980   0.388     64255       0   64255    8569   15464   10933    5537   23752       0     370     112     219      11       5      23    1216     161     289     208     105     452   61435    7888   14130   10714    5426   23277       0    1234     408     826       0       0       0       0     751     247     504       0       0       0       0     483     161     322       0       0       0       0       0     423
 2017 073   124   26445   0.943   10980   0.388   27675   0.987   10980   0.388     64253       0   64253    8568   15463   10933    5537   23752       0     372     113     220      11       5      23    1216     161     290     208     105     452   61435    7888   14130   10714    5426   23277       0    1230     407     824       0       0       0       0     747     246     501       0       0       0       0     483     161     322       0       0       0       0       0     426
 2017 074   125   26447   0.943   10980   0.388   27674   0.987   10980   0.388     64251       0   64251    8568   15462   10933    5537   23752       0     373     113     221      11       5      23    1217     161     290     208     105     452   61435    7888   14130   10714    5426   23277       0    1227     405     821       0       0       0       0     744     245     499       0       0       0       0     483     161     322       0       0       0       0       0     427
 2017 075   126   26448   0.943   10980   0.388   27672   0.987   10980   0.388     64250       0   64250    8567   15461   10933    5537   23752       0     374     114     222      11       5      23    1217     161     290     208     105     452   61435    7888   14130   10714    5426   23277       0    1224     405     820       0       0       0       0     742     244     498       0       0       0       0     483     161     322       0       0       0       0       0     429
 2017 076   127   26449   0.943   10980   0.388   27671   0.986   10980   0.388     64248       0   64248    8567   15460   10933    5537   23752       0     375     114     222      11       5      23    1217     161     290     208     105     452   61434    7888   14130   10714    5426   23277       0    1222     404     818       0       0       0       0     740     243     496       0       0       0       0     482     161     322       0       0       0       0       0     430
 2017 077   128   26450   0.943   10980   0.388   27669   0.986   10980   0.388     64247       0   64247    8566   15459   10933    5537   23752       0     376     114     223      11       5      23    1217     161     290     208     105     452   61434    7888   14130   10714    5426   23277       0    1220     403     817       0       0       0       0     737     242     495       0       0       0       0     482     161     322       0       0       0       0       0     432
 2017 078   129   26451   0.943   10980   0.388   27668   0.986   10980   0.388     64246       0   64246    8566   15458   10933    5537   23752       0     376     114     223      11       5      23    1217     161     290     208     105     452   61434    7888   14130   10714    5426   23277       0    1218     402     816       0       0       0       0     736     242     494       0       0       0       0     482     161     322       0       0       0       0       0     433
 2017 079   130   26452   0.943   10980   0.388   27667   0.986   10980   0.388     64244       0   64244    8565   15457   10933    5537   23752       0     377     115     224      11       5      23    1217     161     290     208     105     452   61434    7888   14130   10714    5426   23277       0    1215     401     814       0       0       0       0     733     241     492       0       0       0       0     482     160     322       0       0       0       0       0     434
 2017 080   131   26453   0.943   10980   0.388   27665   0.986   10980   0.388     64242       0   64242    8565   15456   10933    5537   23752       0     379     115     224      11       5      23    1218     162     290     208     105     452   61434    7888   14130   10714    5426   23277       0    1212     400     812       0       0       0       0     730     240     490       0       0       0       0     482     160     321       0       0       0       0       0     436
 2017 081   132   26455   0.943   10980   0.388   27663   0.986   10980   0.388     64240       0   64240    8564   15455   10933    5537   23752       0     380     116     225      11       5      23    1218     162     291     208     105     452   61434    7888   14129   10714    5426   23277       0    1208     399     809       0       0       0       0     726     238     488       0       0       0       0     482     160     321       0       0       0       0       0     439
 2017 082   133   26457   0.943   10980   0.388   27659   0.986   10980   0.388     64236       0   64236    8563   15452   10933    5537   23752       0     382     116     227      11       5      23    1218     162     291     208     105     452   61434    7888   14129   10714    5426   23277       0    1202     397     805       0       0       0       0     720     236     484       0       0       0       0     481     160     321       0       0       0       0       0     442
 2017 083   134   26461   0.943   10980   0.388   27655   0.986   10980   0.388     64232       0   64232    8561   15450   10933    5537   23752       0     385     117     229      11       5      23    1219     162     291     208     105     452   61434    7888   14129   10714    5426   23277       0    1195     394     801       0       0       0       0     714     234     480       0       0       0       0     481     160     321       0       0       0       0       0     446
 2017 084   135   26463   0.943   10980   0.388   27652   0.986   10980   0.388     64229       0   64229    8560   15448   10933    5537   23752       0     387     118     230      11       5      23    1219     162     291     208     105     452   61434    7888   14129   10714    5426   23277       0    1188     392     797       0       0       0       0     708     232     476       0       0       0       0     481     160     321       0       0       0       0       0     450
 2017 085   136   26467   0.944   10980   0.388   27647   0.986   10980   0.388     64224       0   64224    8558   15445   10933    5537   23752       0     390     119     232      11       5      23    1220     162     292     208     105     452   61434    7888   14129   10714    5426   23277       0    1181     389     792       0       0       0       0     700     229     471       0       0       0       0     480     160     320       0       0       0       0       0     454
 2017 086   137   26470   0.944   10980   0.388   27643   0.985   10980   0.388     64220       0   64220    8557   15442   10932    5537   23752       0     392     120     233      11       5      23    1221     163     292     208     105     452   61433    7888   14129   10714    5426   23276       0    1174     386     787       0       0       0       0     694     227     467       0       0       0       0     480     160     320       0       0       0       0       0     459
 2017 087   138   26472   0.944   10980   0.388   27639   0.985   10980   0.388     64216       0   64216    8555   15440   10932    5537   23752       0     395     121     235      11       5      23    1221     163     292     208     105     452   61433    7888   14129   10714    5426   23276       0    1167     384     783       0       0       0       0     687     224     463       0       0       0       0     480     160     320       0       0       0       0       0     463
 2017 088   139   26476   0.944   10980   0.388   27635   0.985   10980   0.388     64211       0   64211    8554   15437   10932    5537   23751       0     398     122     237      11       5      23    1222     163     293     208     105     452   61433    7888   14129   10714    5426   23276       0    1159     381     778       0       0       0       0     680     222     458       0       0       0       0     479     159     320       0       0       0       0       0     467
 2017 089   140   26480   0.944   10979   0.388   27629   0.985   10979   0.388     64205       0   64205    8552   15433   10932    5537   23751       0     401     123     239      11       5      23    1223     163     293     208     105     452   61433    7888   14129   10714    5426   23276       0    1149     377     771       0       0       0       0     670     218     452       0       0       0       0     479     159     319       0       0       0       0       0     473
 2017 090   141   26485   0.944   10979   0.388   27623   0.985   10979   0.388     64199       0   64199    8549   15430   10932    5537   23751       0     405     125     241      11       5      23    1223     164     294     208     105     452   61433    7888   14129   10714    5426   23276       0    1138     373     765       0       0       0       0     660     214     446       0       0       0       0     478     159     319       0       0       0       0       0     479
 2017 091   142   26487   0.944   10979   0.388   27620   0.985   10979   0.388     64196       0   64196    8548   15427   10932    5537   23751       0     407     126     243      11       5      23    1224     164     294     208     105     453   61432    7888   14129   10714    5426   23276       0    1132     371     761       0       0       0       0     655     212     442       0       0       0       0     478     159     319       0       0       0       0       0     483
 2017 092   143   26490   0.944   10979   0.388   27616   0.985   10979   0.388     64193       0   64193    8547   15425   10932    5537   23751       0     409     126     244      11       5      23    1224     164     294     208     105     453   61432    7888   14129   10714    5426   23276       0    1127     369     758       0       0       0       0     649     210     439       0       0       0       0     477     159     319       0       0       0       0       0     486
 2017 093   144   26492   0.944   10979   0.388   27614   0.984   10979   0.388     64190       0   64190    8546   15423   10932    5537   23751       0     411     127     245      11       5      23    1225     164     295     208     105     453   61432    7888   14129   10714    5426   23276       0    1122     367     754       0       0       0       0     645     209     436       0       0       0       0     477     159     318       0       0       0       0       0     489
 2017 094   145   26494   0.945   10979   0.388   27610   0.984   10979   0.388     64186       0   64186    8545   15421   10932    5537   23751       0     413     128     247      11       5      23    1225     164     295     208     105     453   61432    7888   14129   10714    5426   23276       0    1116     365     751       0       0       0       0     639     207     432       0       0       0       0     477     158     318       0       0       0       0       0     492
 2017 095   146   26497   0.945   10979   0.388   27607   0.984   10979   0.388     64183       0   64183    8544   15419   10932    5537   23751       0     415     128     248      11       5      23    1226     165     295     208     105     453   61432    7888   14129   10714    5426   23276       0    1110     363     747       0       0       0       0     634     205     429       0       0       0       0     476     158     318       0       0       0       0       0     496
 2017 096   147   26499   0.945   10979   0.388   27604   0.984   10979   0.388     64180       0   64180    8543   15417   10932    5537   23751       0     417     129     249      11       5      23    1226     165     296     208     105     453   61432    7888   14129   10713    5426   23276       0    1105     362     743       0       0       0       0     629     203     425       0       0       0       0     476     158     318       0       0       0       0       0     499
 2017 097   148   26502   0.945   10979   0.388   27601   0.984   10979   0.388     64176       0   64176    8542   15415   10932    5537   23751       0     419     130     250      11       5      23    1227     165     296     208     105     453   61432    7888   14129   10713    5426   23276       0    1099     360     739       0       0       0       0     623     202     422       0       0       0       0     476     158     318       0       0       0       0       0     502
 2017 098   149   26504   0.945   10979   0.388   27597   0.984   10979   0.388     64173       0   64173    8540   15413   10932    5537   23751       0     421     130     252      11       5      23    1227     165     296     208     105     453   61432    7888   14129   10713    5426   23276       0    1093     358     736       0       0       0       0     618     200     418       0       0       0       0     475     158     317       0       0       0       0       0     506
 2017 099   150   26506   0.945   10979   0.388   27594   0.984   10979   0.388     64170       0   64170    8539   15411   10932    5537   23751       0     423     131     253      11       5      23    1228     165     297     208     105     453   61431    7887   14129   10713    5426   23276       0    1088     356     732       0       0       0       0     613     198     415       0       0       0       0     475     158     317       0       0       0       0       0     509
 2017 100   151   26509   0.945   10979   0.388   27590   0.984   10979   0.388     64166       0   64166    8538   15408   10932    5537   23751       0     425     132     254      11       5      23    1228     165     297     208     105     453   61431    7887   14129   10713    5426   23276       0    1081     353     728       0       0       0       0     607     196     411       0       0       0       0     475     158     317       0       0       0       0       0     513
 2017 101   152   26513   0.945   10979   0.388   27586   0.983   10979   0.388     64161       0   64161    8536   15406   10932    5537   23751       0     427     133     256      11       5      23    1229     166     297     208     105     453   61431    7887   14129   10713    5426   23275       0    1073     350     723       0       0       0       0     599     193     407       0       0       0       0     474     158     317       0       0       0       0       0     517
 2017 102   153   26516   0.945   10979   0.388   27581   0.983   10979   0.388     64156       0   64156    8535   15402   10932    5537   23751       0     430     134     258      11       5      23    1230     166     298     208     105     453   61431    7887   14129   10713    5426   23275       0    1064     348     717       0       0       0       0     591     190     401       0       0       0       0     474     157     316       0       0       0       0       0     523
 2017 103   154   26521   0.945   10979   0.388   27575   0.983   10979   0.388     64150       0   64150    8533   15398   10932    5537   23750       0     434     135     261      11       5      23    1231     166     299     208     105     453   61431    7887   14129   10713    5426   23275       0    1054     344     710       0       0       0       0     581     187     394       0       0       0       0     473     157     316       0       0       0       0       0     529
 2017 104   155   26525   0.946   10979   0.388   27568   0.983   10979   0.388     64143       0   64143    8531   15394   10932    5537   23750       0     438     136     263      11       5      23    1232     167     299     208     105     453   61431    7887   14129   10713    5426   23275       0    1043     341     702       0       0       0       0     571     184     387       0       0       0       0     472     157     315       0       0       0       0       0     535
 2017 105   156   26529   0.946   10979   0.388   27563   0.983   10979   0.388     64138       0   64138    8529   15390   10932    5537   23750       0     441     137     265      11       5      23    1233     167     300     208     105     453   61430    7887   14129   10713    5426   23275       0    1034     338     696       0       0       0       0     562     181     381       0       0       0       0     472     157     315       0       0       0       0       0     541
 2017 106   157   26534   0.946   10979   0.388   27557   0.982   10979   0.388     64132       0   64132    8527   15387   10932    5537   23750       0     444     138     267      11       5      23    1234     167     301     208     105     453   61430    7887   14129   10713    5426   23275       0    1024     334     690       0       0       0       0     553     177     375       0       0       0       0     471     156     314       0       0       0       0       0     547
[...]
 2017 249   300   26771   0.954   10975   0.388   27121   0.967   10989   0.388     63712       0   63712    8381   15093   10939    5545   23753       0     412     117     244      15       9      27    1543     271     499     210     107     456   61370    7880   14117   10702    5420   23251       0     386     113     234      12       9      19       0      39       5      12       6       5      11       0     347     108     222       5       4       8       0       0    1086
 2017 250   301   26771   0.954   10975   0.388   27120   0.967   10989   0.388     63711       0   63711    8381   15093   10939    5545   23753       0     411     117     243      15       9      27    1545     272     500     210     107     456   61370    7880   14117   10702    5420   23251       0     386     112     233      12       9      19       0      39       5      11       6       5      12       0     346     108     222       5       4       8       0       0    1088
 2017 251   302   26771   0.954   10975   0.388   27119   0.967   10989   0.388     63711       0   63711    8381   15092   10939    5545   23754       0     410     116     242      15       9      27    1547     273     502     210     107     456   61369    7880   14117   10702    5420   23251       0     385     112     232      12      10      20       0      39       5      11       6       5      12       0     346     107     221       5       4       8       0       0    1091
 2017 252   303   26771   0.954   10975   0.388   27118   0.967   10989   0.388     63710       0   63710    8380   15092   10939    5545   23754       0     408     116     241      15       9      27    1549     273     503     210     107     456   61369    7880   14117   10702    5420   23251       0     385     112     232      12      10      20       0      39       5      11       6       5      12       0     345     107     220       5       4       8       0       0    1093
 2017 253   304   26771   0.954   10975   0.388   27118   0.967   10990   0.388     63710       0   63710    8380   15091   10939    5546   23754       0     407     115     240      15       9      27    1550     274     504     210     107     456   61368    7880   14116   10702    5420   23251       0     384     111     231      12      10      20       0      39       5      11       7       5      12       0     345     107     220       6       4       8       0       0    1095
 2017 254   305   26771   0.954   10975   0.388   27117   0.967   10990   0.388     63710       0   63710    8380   15091   10939    5546   23754       0     406     115     239      16       9      28    1552     274     505     210     107     456   61368    7880   14116   10702    5420   23251       0     384     111     230      12      10      20       0      40       5      11       7       5      12       0     344     107     219       6       4       8       0       0    1097
 2017 255   306   26771   0.954   10975   0.388   27116   0.967   10990   0.388     63710       0   63710    8380   15090   10940    5546   23755       0     405     114     238      16       9      28    1554     275     506     210     107     456   61368    7880   14116   10701    5420   23250       0     384     111     230      12      10      21       0      40       5      11       7       5      12       0     344     106     219       6       5       8       0       0    1098
 2017 256   307   26772   0.954   10975   0.388   27116   0.967   10990   0.388     63710       0   63710    8380   15090   10940    5546   23755       0     404     114     237      16       9      28    1555     275     507     210     107     456   61367    7880   14116   10701    5420   23250       0     383     111     229      12      10      21       0      40       5      11       7       6      12       0     343     106     218       6       5       8       0       0    1100
 2017 257   308   26772   0.954   10975   0.388   27115   0.967   10990   0.388     63710       0   63710    8380   15089   10940    5546   23755       0     403     114     236      16      10      28    1557     275     509     210     107     456   61367    7880   14116   10701    5420   23250       0     383     111     228      13      10      21       0      40       5      11       7       6      13       0     343     106     218       6       5       9       0       0    1102
 2017 258   309   26772   0.954   10975   0.388   27114   0.967   10990   0.388     63709       0   63709    8379   15088   10940    5546   23755       0     402     114     235      16      10      28    1558     276     510     210     107     456   61366    7880   14116   10701    5420   23250       0     383     111     228      13      10      21       0      40       5      11       7       6      13       0     342     106     217       6       5       9       0       0    1104
 2017 259   310   26772   0.954   10975   0.388   27114   0.967   10991   0.388     63709       0   63709    8379   15088   10940    5546   23756       0     401     113     234      16      10      28    1560     276     511     210     107     456   61366    7880   14116   10701    5420   23250       0     382     110     227      13      10      22       0      40       5      10       7       6      13       0     342     106     217       6       5       9       0       0    1106
 2017 260   311   26772   0.954   10975   0.388   27113   0.967   10991   0.388     63709       0   63709    8379   15087   10940    5547   23756       0     400     113     233      16      10      28    1562     276     512     210     107     456   61366    7880   14116   10701    5420   23250       0     382     110     226      13      10      22       0      40       5      10       7       6      13       0     341     106     216       6       5       9       0       0    1108
 2017 261   312   26772   0.954   10975   0.388   27112   0.967   10991   0.388     63709       0   63709    8379   15087   10940    5547   23756       0     399     113     232      16      10      28    1563     277     513     210     107     456   61365    7880   14116   10701    5420   23250       0     381     110     226      13      10      22       0      40       5      10       7       6      13       0     341     106     215       6       5       9       0       0    1110
 2017 262   313   26772   0.954   10975   0.388   27112   0.967   10991   0.388     63708       0   63708    8379   15086   10940    5547   23756       0     398     113     231      16      10      29    1565     277     515     210     107     456   61365    7880   14116   10701    5419   23249       0     380     110     225      13      10      22       0      40       5      10       7       6      13       0     340     105     215       6       5       9       0       0    1112
 2017 263   314   26772   0.954   10975   0.388   27111   0.967   10991   0.388     63708       0   63708    8379   15085   10940    5547   23756       0     397     113     229      16      10      29    1567     277     516     210     107     456   61364    7879   14115   10701    5419   23249       0     380     110     224      13      10      22       0      40       5      10       7       6      13       0     340     105     214       6       5       9       0       0    1114
 2017 264   315   26773   0.954   10976   0.388   27110   0.967   10991   0.388     63707       0   63707    8379   15084   10940    5547   23756       0     396     112     228      16      10      29    1569     277     518     211     107     456   61364    7879   14115   10701    5419   23249       0     379     110     223      13      11      22       0      40       5      10       7       6      13       0     339     105     213       6       5       9       0       0    1116
 2017 265   316   26773   0.954   10976   0.388   27109   0.966   10991   0.388     63706       0   63706    8379   15084   10940    5547   23756       0     394     112     227      16      10      29    1571     278     519     211     107     456   61363    7879   14115   10701    5419   23249       0     378     110     222      13      11      22       0      40       5       9       7       6      13       0     338     105     213       6       5       9       0       0    1119
 2017 266   317   26773   0.954   10976   0.388   27108   0.966   10991   0.388     63705       0   63705    8379   15083   10940    5547   23756       0     393     111     226      16      10      29    1573     278     520     211     107     456   61363    7879   14115   10700    5419   23249       0     377     110     221      13      11      22       0      39       5       9       7       6      13       0     338     105     212       6       5      10       0       0    1121
 2017 267   318   26773   0.954   10976   0.388   27107   0.966   10991   0.388     63705       0   63705    8379   15082   10940    5547   23757       0     392     111     225      17      10      29    1575     279     522     211     107     456   61362    7879   14115   10700    5419   23248       0     376     109     221      13      11      22       0      39       5       9       7       6      13       0     337     105     211       6       5      10       0       0    1123
 2017 268   319   26773   0.954   10976   0.388   27106   0.966   10991   0.388     63704       0   63704    8378   15081   10940    5547   23757       0     391     111     224      17      10      29    1577     279     523     211     107     456   61362    7879   14115   10700    5419   23248       0     375     109     220      13      11      23       0      39       5       9       7       5      13       0     336     104     211       6       5      10       0       0    1126
 2017 269   320   26773   0.955   10976   0.388   27105   0.966   10991   0.388     63703       0   63703    8378   15080   10940    5547   23757       0     390     111     222      17      10      30    1579     279     525     211     107     457   61361    7879   14115   10700    5419   23248       0     374     109     219      13      10      22       0      38       5       9       7       5      13       0     335     104     210       6       5      10       0       0    1128
 2017 270   321   26773   0.955   10976   0.388   27104   0.966   10991   0.388     63702       0   63702    8378   15079   10940    5547   23757       0     388     110     221      17      10      30    1581     279     526     211     107     457   61361    7879   14115   10700    5419   23248       0     373     109     218      13      10      22       0      38       5       9       6       5      13       0     335     104     209       6       5      10       0       0    1131
 2017 271   322   26773   0.955   10976   0.388   27104   0.966   10991   0.388     63701       0   63701    8378   15079   10940    5547   23757       0     387     110     220      17      10      30    1582     280     528     211     107     457   61360    7879   14114   10700    5419   23247       0     371     109     217      13      10      22       0      38       5       8       6       5      13       0     334     104     208       6       5      10       0       0    1133
 2017 272   323   26773   0.955   10976   0.388   27103   0.966   10991   0.388     63700       0   63700    8378   15078   10940    5547   23757       0     386     110     218      17      11      30    1584     280     529     211     107     457   61359    7879   14114   10700    5419   23247       0     371     109     216      13      10      22       0      37       5       8       6       5      12       0     333     104     208       6       5      10       0       0    1135
 2017 273   324   26774   0.955   10976   0.388   27102   0.966   10991   0.388     63700       0   63700    8378   15077   10940    5547   23757       0     385     110     217      17      11      30    1586     280     531     211     107     457   61359    7879   14114   10700    5419   23247       0     370     109     215      13      10      22       0      37       5       8       6       5      12       0     333     104     207       6       5      10       0       0    1137
 2017 274   325   26774   0.955   10976   0.388   27102   0.966   10992   0.388     63700       0   63700    8379   15077   10941    5547   23757       0     385     110     216      17      11      30    1587     280     532     211     107     457   61358    7879   14114   10700    5419   23247       0     370     109     215      13      10      23       0      37       5       8       6       5      12       0     332     104     206       7       5      10       0       0    1139
 2017 275   326   26774   0.955   10976   0.388   27102   0.966   10992   0.388     63700       0   63700    8379   15076   10941    5547   23757       0     384     110     216      17      11      31    1588     280     533     211     107     457   61358    7879   14114   10699    5419   23247       0     370     109     214      13      10      23       0      37       5       8       6       5      12       0     332     104     206       7       5      10       0       0    1141
 2017 276   327   26774   0.955   10976   0.388   27101   0.966   10992   0.388     63700       0   63700    8379   15076   10941    5548   23757       0     384     110     215      17      11      31    1589     280     533     211     107     457   61358    7879   14114   10699    5419   23246       0     370     110     214      13      11      23       0      38       5       8       6       5      13       0     332     104     206       7       5      10       0       0    1142
 2017 277   328   26774   0.955   10976   0.388   27101   0.966   10992   0.388     63699       0   63699    8379   15075   10941    5547   23757       0     383     110     214      17      11      31    1590     280     534     211     107     457   61357    7879   14114   10699    5419   23246       0     369     110     213      13      10      23       0      37       5       8       6       5      12       0     332     104     205       7       5      10       0       0    1143
 2017 278   329   26774   0.955   10976   0.388   27100   0.966   10991   0.388     63698       0   63698    8379   15075   10940    5547   23756       0     383     110     214      17      11      31    1591     280     535     211     107     457   61357    7879   14114   10699    5419   23246       0     367     110     213      13      10      22       0      36       5       8       6       5      12       0     331     104     205       7       5      10       0       0    1144
 2017 279   330   26774   0.955   10976   0.388   27100   0.966   10991   0.388     63696       0   63696    8379   15074   10940    5547   23756       0     382     110     213      17      11      31    1591     280     536     211     108     457   61357    7879   14114   10699    5419   23246       0     366     110     212      12      10      22       0      35       5       8       6       5      12       0     331     104     204       7       5      10       0       0    1146
 2017 280   331   26774   0.955   10976   0.388   27099   0.966   10991   0.388     63695       0   63695    8379   15074   10940    5547   23756       0     382     110     212      17      11      31    1592     280     536     211     108     457   61356    7879   14114   10699    5419   23246       0     365     110     211      12      10      22       0      34       5       7       6       5      11       0     330     104     204       7       5      10       0       0    1147
 2017 281   332   26774   0.955   10976   0.388   27098   0.966   10991   0.388     63694       0   63694    8379   15073   10940    5547   23755       0     381     110     212      17      11      31    1593     280     537     211     108     457   61356    7879   14114   10699    5419   23246       0     363     109     211      12      10      21       0      34       5       7       5       5      11       0     330     104     204       7       5      10       0       0    1148
 2017 282   333   26774   0.955   10976   0.388   27097   0.966   10991   0.388     63692       0   63692    8378   15072   10940    5547   23755       0     380     110     211      18      11      31    1595     281     538     211     108     457   61356    7879   14114   10699    5419   23246       0     361     109     210      12      10      21       0      33       5       7       5       4      11       0     329     104     203       6       5      10       0       0    1150
 2017 283   334   26774   0.955   10976   0.388   27096   0.966   10990   0.388     63690       0   63690    8378   15072   10939    5547   23755       0     379     109     210      18      11      31    1596     281     539     211     108     457   61355    7879   14113   10699    5419   23245       0     360     109     209      12       9      21       0      32       5       7       5       4      10       0     328     104     203       6       5      10       0       0    1152
 2017 284   335   26774   0.955   10976   0.388   27095   0.966   10990   0.388     63689       0   63689    8377   15071   10939    5547   23754       0     378     109     210      18      11      31    1598     282     539     211     108     457   61355    7879   14113   10699    5418   23245       0     358     108     209      11       9      20       0      31       5       7       5       4      10       0     327     103     202       6       5      10       0       0    1153
 2017 285   336   26774   0.955   10976   0.388   27094   0.966   10990   0.388     63687       0   63687    8377   15071   10939    5546   23754       0     377     108     209      18      11      31    1599     282     540     211     108     458   61355    7879   14113   10699    5418   23245       0     356     108     208      11       9      20       0      30       5       7       5       4      10       0     326     103     202       6       5      10       0       0    1155
 2017 286   337   26774   0.955   10976   0.388   27093   0.966   10990   0.388     63686       0   63686    8377   15070   10939    5546   23754       0     377     108     209      18      11      32    1600     283     541     212     108     458   61354    7879   14113   10699    5418   23245       0     355     107     208      11       9      20       0      29       5       6       5       4      10       0     326     103     202       6       5      10       0       0    1156
 2017 287   338   26774   0.955   10976   0.388   27093   0.966   10990   0.388     63685       0   63685    8376   15070   10939    5546   23753       0     376     108     208      18      11      32    1601     283     541     212     108     458   61354    7879   14113   10699    5418   23245       0     354     107     207      11       9      19       0      29       5       6       5       4       9       0     325     103     201       6       5      10       0       0    1157
 2017 288   339   26774   0.955   10976   0.388   27092   0.966   10990   0.388     63684       0   63684    8376   15070   10939    5546   23753       0     375     107     208      18      11      32    1602     283     542     212     108     458   61354    7879   14113   10699    5418   23245       0     353     107     207      11       9      19       0      28       4       6       5       4       9       0     325     102     201       6       5      10       0       0    1158
