*SOM N DAILY OUTPUT FILE

*DSSAT Cropping System Model Ver. 4.6.1.000 -release      APR 22, 2019; 09:45:14
                                                                                
*RUN   1        : Sim1                      MZCER046 UINT1601    1              
 MODEL          : MZCER046 - Maize                                              
 EXPERIMENT     : UINT1601 MZ N TRACK                                           
 DATA PATH      :                                                               
 TREATMENT  1   : Sim1                      MZCER046                            
  
!                                                                                                                                                                                                                                                                                                                                                                                                                                                Cumul.
!               <---- SOM N in top layers ----> <---------------- Total Soil Organic Nitrogen ----------------> <-------- Active Soil Organic Nitrogen (SOM1) --------> <---- Intermediate Soil Organic N (SOM2) -----> <------- Passive Soil Organic N (SOM3) -------> <----------------- Litter Nitrogen -------------------> <------------- Metabolic Litter Nitrogen -------------> <------------ Structural Litter Nitrogen ------------->  Res. N
!               20cm-kg  20cm-% 40cm-kg  40cm-%   Total Surface    Soil     0-5    5-15   15-30   30-45  45-150 Surface    Soil     0-5    5-15   15-30   30-45  45-150    Soil     0-5    5-15   15-30   30-45  45-150    Soil     0-5    5-15   15-30   30-45  45-150 Surface    Soil     0-5    5-15   15-30   30-45  45-150 Surface    Soil     0-5    5-15   15-30   30-45  45-150 Surface    Soil     0-5    5-15   15-30   30-45  45-150 (kg/ha)
@YEAR DOY   DAS  SNS20D  SN%20D  SNS40D  SN%40D    SOND    SN0D    SNTD    SN1D    SN2D    SN3D    SN4D   SN5+D   S1N0D   S1NTD   S1N1D   S1N2D   S1N3D   S1N4D  S1N5+D   S2NTD   S2N1D   S2N2D   S2N3D   S2N4D  S2N5+D   S3NTD   S3N1D   S3N2D   S3N3D   S3N4D  S3N5+D    LN0D    LNTD    LN1D    LN2D    LN3D    LN4D   LN5+D   MEN0D   MENTD   MEN1D   MEN2D   MEN3D   MEN4D  MEN5+D   STN0D   STNTD   STN1D   STN2D   STN3D   STN4D  STN5+D   RESNC
 2016 315     0    3688   0.131    1551   0.055    8914       0    8914    1157    2076    1544     782    3355       0       6       1       1       1       1       2      70       9      16      12       6      27    8778    1127    2019    1531     775    3326    0.00   59.36   19.80   39.57    0.00    0.00    0.00    0.00   55.96   18.66   37.30    0.00    0.00    0.00    0.00    3.40    1.13    2.27    0.00    0.00    0.00       0
 2016 316     1    3688   0.131    1551   0.055    8914       0    8914    1157    2076    1544     782    3355       0       7       1       2       1       1       2      70       9      16      12       6      27    8778    1127    2019    1531     775    3326    0.00   58.85   19.60   39.24    0.00    0.00    0.00    0.00   55.44   18.47   36.98    0.00    0.00    0.00    0.00    3.40    1.13    2.27    0.00    0.00    0.00       0
 2016 317     2    3689   0.132    1551   0.055    8914       0    8914    1157    2076    1544     782    3355       0       7       1       2       1       1       2      70       9      16      12       6      27    8778    1127    2019    1531     775    3326    0.00   58.34   19.41   38.93    0.00    0.00    0.00    0.00   54.94   18.28   36.66    0.00    0.00    0.00    0.00    3.40    1.13    2.27    0.00    0.00    0.00       0
 2016 318     3    3689   0.132    1551   0.055    8914       0    8914    1157    2076    1544     782    3355       0       8       1       2       1       1       2      70       9      16      12       6      27    8778    1127    2019    1531     775    3326    0.00   57.81   19.21   38.60    0.00    0.00    0.00    0.00   54.41   18.08   36.33    0.00    0.00    0.00    0.00    3.40    1.13    2.27    0.00    0.00    0.00       0
 2016 319     4    3690   0.132    1551   0.055    8914       0    8914    1157    2076    1544     782    3355       0       8       2       3       1       1       2      70       9      16      12       6      27    8778    1127    2019    1531     775    3326    0.00   57.32   19.03   38.29    0.00    0.00    0.00    0.00   53.92   17.90   36.03    0.00    0.00    0.00    0.00    3.40    1.13    2.26    0.00    0.00    0.00       0
 2016 320     5    3690   0.132    1551   0.055    8914       0    8914    1157    2076    1544     782    3355       0       9       2       3       1       1       2      70       9      16      12       6      27    8778    1127    2019    1531     775    3326    0.00   56.86   18.86   38.01    0.00    0.00    0.00    0.00   53.47   17.73   35.74    0.00    0.00    0.00    0.00    3.40    1.13    2.26    0.00    0.00    0.00       0
 2016 321     6    3691   0.132    1551   0.055    8914       0    8914    1157    2076    1544     782    3355       0       9       2       3       1       1       2      70       9      16      12       6      27    8778    1127    2019    1531     775    3326    0.00   56.42   18.69   37.73    0.00    0.00    0.00    0.00   53.03   17.56   35.47    0.00    0.00    0.00    0.00    3.39    1.13    2.26    0.00    0.00    0.00       0
 2016 322     7    3691   0.132    1551   0.055    8914       0    8914    1157    2076    1544     782    3355       0      10       2       4       1       1       2      70       9      16      12       6      27    8778    1127    2019    1531     775    3326    0.00   55.98   18.52   37.45    0.00    0.00    0.00    0.00   52.58   17.39   35.19    0.00    0.00    0.00    0.00    3.39    1.13    2.26    0.00    0.00    0.00       0
 2016 323     8    3692   0.132    1551   0.055    8914       0    8914    1156    2076    1544     782    3355       0      10       2       4       1       1       2      70       9      16      12       6      27    8778    1127    2019    1531     775    3326    0.00   55.56   18.37   37.20    0.00    0.00    0.00    0.00   52.17   17.24   34.94    0.00    0.00    0.00    0.00    3.39    1.13    2.26    0.00    0.00    0.00       0
 2016 324     9    3692   0.132    1551   0.055    8914       0    8914    1156    2076    1544     782    3355       0      10       2       4       1       1       2      70       9      16      12       6      27    8778    1127    2019    1531     775    3326    0.00   55.11   18.20   36.92    0.00    0.00    0.00    0.00   51.72   17.07   34.66    0.00    0.00    0.00    0.00    3.39    1.13    2.26    0.00    0.00    0.00       0
 2016 325    10    3693   0.132    1551   0.055    8914       0    8914    1156    2076    1544     782    3355       0      11       3       4       1       1       2      70       9      16      12       6      27    8778    1127    2019    1531     775    3326    0.00   54.56   17.99   36.57    0.00    0.00    0.00    0.00   51.17   16.86   34.32    0.00    0.00    0.00    0.00    3.39    1.13    2.26    0.00    0.00    0.00       0
 2016 326    11    3693   0.132    1551   0.055    8914       0    8914    1156    2076    1544     782    3355       0      12       3       5       1       1       2      70       9      16      12       6      27    8778    1127    2019    1531     775    3326    0.00   53.99   17.77   36.22    0.00    0.00    0.00    0.00   50.61   16.64   33.96    0.00    0.00    0.00    0.00    3.39    1.13    2.26    0.00    0.00    0.00       0
 2016 327    12    3694   0.132    1551   0.055    8914       0    8914    1156    2076    1544     782    3355       0      12       3       5       1       1       2      70       9      16      12       6      27    8778    1127    2019    1531     775    3326    0.00   53.53   17.60   35.94    0.00    0.00    0.00    0.00   50.15   16.47   33.68    0.00    0.00    0.00    0.00    3.38    1.13    2.26    0.00    0.00    0.00       0
 2016 328    13    3694   0.132    1551   0.055    8914       0    8914    1156    2076    1544     782    3355       0      12       3       5       1       1       2      70       9      16      12       6      27    8778    1127    2019    1531     775    3326    0.00   53.17   17.46   35.71    0.00    0.00    0.00    0.00   49.79   16.33   33.45    0.00    0.00    0.00    0.00    3.38    1.13    2.26    0.00    0.00    0.00       0
 2016 329    14    3694   0.132    1551   0.055    8914       0    8914    1156    2076    1544     782    3355       0      13       3       6       1       1       2      70       9      16      12       6      27    8778    1127    2019    1531     775    3326    0.00   52.89   17.35   35.53    0.00    0.00    0.00    0.00   49.50   16.23   33.28    0.00    0.00    0.00    0.00    3.38    1.13    2.26    0.00    0.00    0.00       0
 2016 330    15    3694   0.132    1551   0.055    8914       0    8914    1156    2076    1544     782    3355       0      13       3       6       1       1       2      70       9      16      12       6      27    8778    1127    2019    1531     775    3326    0.00   52.67   17.26   35.41    0.00    0.00    0.00    0.00   49.29   16.13   33.15    0.00    0.00    0.00    0.00    3.38    1.13    2.26    0.00    0.00    0.00       0
 2016 331    16    3695   0.132    1551   0.055    8914       0    8914    1156    2076    1544     782    3355       0      13       3       6       1       1       2      70       9      16      12       6      27    8778    1127    2019    1531     775    3326    0.00   52.51   17.20   35.31    0.00    0.00    0.00    0.00   49.13   16.08   33.05    0.00    0.00    0.00    0.00    3.38    1.13    2.26    0.00    0.00    0.00       0
 2016 332    17    3695   0.132    1551   0.055    8914       0    8914    1156    2076    1544     782    3355       0      13       3       6       1       1       2      70       9      16      12       6      27    8778    1127    2019    1531     775    3326    0.00   52.34   17.14   35.20    0.00    0.00    0.00    0.00   48.96   16.01   32.95    0.00    0.00    0.00    0.00    3.38    1.13    2.25    0.00    0.00    0.00       0
 2016 333    18    3695   0.132    1551   0.055    8913       0    8913    1156    2076    1544     782    3355       0      13       3       6       1       1       2      70       9      16      12       6      27    8778    1127    2019    1531     775    3326    0.00   52.14   17.06   35.08    0.00    0.00    0.00    0.00   48.76   15.93   32.83    0.00    0.00    0.00    0.00    3.38    1.13    2.25    0.00    0.00    0.00       0
 2016 334    19    3695   0.132    1551   0.055    8913       0    8913    1156    2076    1544     782    3355       0      14       3       6       1       1       2      70       9      16      12       6      27    8778    1127    2019    1531     775    3326    0.00   51.91   16.96   34.95    0.00    0.00    0.00    0.00   48.53   15.84   32.70    0.00    0.00    0.00    0.00    3.38    1.12    2.25    0.00    0.00    0.00       0
 2016 335    20    3696   0.132    1551   0.055    8913       0    8913    1156    2076    1544     782    3355       0      14       4       6       1       1       2      70       9      16      12       6      27    8778    1127    2019    1531     775    3326    0.00   51.54   16.89   34.66    0.00    0.00    0.00    0.00   48.17   15.76   32.40    0.00    0.00    0.00    0.00    3.38    1.12    2.25    0.00    0.00    0.00       0
 2016 336    21    3696   0.132    1551   0.055    8913       0    8913    1156    2076    1544     782    3355       0      14       4       7       1       1       2      70       9      16      12       6      27    8778    1127    2019    1531     775    3326    0.00   51.30   16.81   34.49    0.00    0.00    0.00    0.00   47.92   15.68   32.24    0.00    0.00    0.00    0.00    3.38    1.12    2.25    0.00    0.00    0.00       0
 2016 337    22    3696   0.132    1551   0.055    8913       0    8913    1156    2076    1544     782    3355       0      14       4       7       1       1       2      70       9      16      12       6      27    8778    1127    2019    1531     775    3326    0.00   50.99   16.71   34.29    0.00    0.00    0.00    0.00   47.62   15.58   32.04    0.00    0.00    0.00    0.00    3.38    1.12    2.25    0.00    0.00    0.00       0
 2016 338    23    3696   0.132    1551   0.055    8913       0    8913    1156    2076    1544     782    3355       0      15       4       7       1       1       2      70       9      16      12       6      27    8778    1127    2019    1531     775    3326    0.00   50.69   16.60   34.08    0.00    0.00    0.00    0.00   47.31   15.48   31.83    0.00    0.00    0.00    0.00    3.37    1.12    2.25    0.00    0.00    0.00       0
 2016 339    24    3697   0.132    1551   0.055    8913       0    8913    1156    2076    1544     782    3355       0      15       4       7       1       1       2      70       9      16      12       6      27    8778    1127    2019    1531     775    3326    0.00   50.38   16.50   33.88    0.00    0.00    0.00    0.00   47.01   15.38   31.63    0.00    0.00    0.00    0.00    3.37    1.12    2.25    0.00    0.00    0.00       0
 2016 340    25    3697   0.132    1551   0.055    8913       0    8913    1156    2076    1544     782    3355       0      15       4       7       1       1       2      70       9      16      12       6      27    8778    1127    2019    1531     775    3326    0.00   50.09   16.40   33.69    0.00    0.00    0.00    0.00   46.72   15.28   31.44    0.00    0.00    0.00    0.00    3.37    1.12    2.25    0.00    0.00    0.00       0
 2016 341    26    3697   0.132    1551   0.055    8913       0    8913    1156    2076    1544     782    3355       0      16       4       8       1       1       2      70       9      16      12       6      27    8778    1127    2019    1531     775    3326    0.00   49.85   16.33   33.52    0.00    0.00    0.00    0.00   46.48   15.20   31.27    0.00    0.00    0.00    0.00    3.37    1.12    2.25    0.00    0.00    0.00       0
 2016 342    27    3697   0.132    1551   0.055    8913       0    8913    1156    2076    1544     782    3355       0      16       4       8       1       1       2      70       9      16      12       6      27    8778    1127    2019    1531     775    3326    0.00   49.65   16.26   33.38    0.00    0.00    0.00    0.00   46.28   15.14   31.13    0.00    0.00    0.00    0.00    3.37    1.12    2.25    0.00    0.00    0.00       0
 2016 343    28    3698   0.132    1551   0.055    8913       0    8913    1156    2076    1544     782    3355       0      16       4       8       1       1       2      70       9      16      12       6      27    8778    1127    2019    1531     775    3326    0.00   49.45   16.20   33.25    0.00    0.00    0.00    0.00   46.08   15.08   31.00    0.00    0.00    0.00    0.00    3.37    1.12    2.25    0.00    0.00    0.00       0
 2016 344    29    3698   0.132    1551   0.055    8913       0    8913    1156    2076    1544     782    3355       0      16       4       8       1       1       2      70       9      16      12       6      27    8778    1127    2019    1531     775    3326    0.00   49.27   16.15   33.12    0.00    0.00    0.00    0.00   45.90   15.03   30.87    0.00    0.00    0.00    0.00    3.37    1.12    2.25    0.00    0.00    0.00       0
 2016 345    30    3698   0.132    1551   0.055    8913       0    8913    1156    2076    1544     782    3355       0      16       4       8       1       1       2      70       9      16      12       6      27    8778    1127    2019    1531     775    3326    0.00   49.11   16.10   33.01    0.00    0.00    0.00    0.00   45.74   14.98   30.76    0.00    0.00    0.00    0.00    3.37    1.12    2.25    0.00    0.00    0.00       0
 2016 346    31    3698   0.132    1551   0.055    8913       0    8913    1156    2076    1544     782    3355       0      16       4       8       1       1       2      70       9      16      12       6      27    8778    1127    2019    1531     775    3326    0.00   48.97   16.05   32.91    0.00    0.00    0.00    0.00   45.60   14.93   30.67    0.00    0.00    0.00    0.00    3.37    1.12    2.25    0.00    0.00    0.00       0
 2016 347    32    3698   0.132    1551   0.055    8913       0    8913    1156    2076    1544     782    3355       0      17       4       8       1       1       2      70       9      16      12       6      27    8778    1127    2019    1531     775    3326    0.00   48.83   16.01   32.82    0.00    0.00    0.00    0.00   45.47   14.89   30.58    0.00    0.00    0.00    0.00    3.37    1.12    2.25    0.00    0.00    0.00       0
 2016 348    33    3698   0.132    1551   0.055    8913       0    8913    1156    2076    1544     782    3355       0      17       4       8       1       1       2      70       9      16      12       6      27    8778    1127    2019    1531     775    3326    0.00   48.71   15.97   32.73    0.00    0.00    0.00    0.00   45.34   14.85   30.49    0.00    0.00    0.00    0.00    3.37    1.12    2.25    0.00    0.00    0.00       0
 2016 349    34    3698   0.132    1551   0.055    8913       0    8913    1156    2076    1544     782    3355       0      17       4       8       1       1       2      70       9      16      12       6      27    8778    1127    2019    1531     775    3326    0.00   48.59   15.94   32.65    0.00    0.00    0.00    0.00   45.22   14.82   30.41    0.00    0.00    0.00    0.00    3.37    1.12    2.25    0.00    0.00    0.00       0
 2016 350    35    3699   0.132    1551   0.055    8913       0    8913    1156    2076    1544     782    3355       0      17       4       9       1       1       2      70       9      16      12       6      27    8778    1127    2019    1531     775    3326    0.00   48.48   15.90   32.57    0.00    0.00    0.00    0.00   45.11   14.78   30.33    0.00    0.00    0.00    0.00    3.37    1.12    2.25    0.00    0.00    0.00       0
 2016 351    36    3699   0.132    1551   0.055    8913       0    8913    1156    2076    1544     782    3355       0      17       4       9       1       1       2      70       9      16      12       6      27    8778    1127    2019    1531     775    3326    0.00   48.37   15.87   32.50    0.00    0.00    0.00    0.00   45.01   14.75   30.26    0.00    0.00    0.00    0.00    3.37    1.12    2.25    0.00    0.00    0.00       0
 2016 352    37    3699   0.132    1551   0.055    8913       0    8913    1156    2076    1544     782    3355       0      17       4       9       1       1       2      70       9      16      12       6      27    8778    1127    2019    1531     775    3326    0.00   48.28   15.84   32.44    0.00    0.00    0.00    0.00   44.91   14.72   30.19    0.00    0.00    0.00    0.00    3.37    1.12    2.24    0.00    0.00    0.00       0
 2016 353    38    3699   0.132    1551   0.055    8913       0    8913    1156    2076    1544     782    3355       0      17       5       9       1       1       2      70       9      16      12       6      27    8778    1127    2019    1531     775    3326    0.00   48.20   15.81   32.38    0.00    0.00    0.00    0.00   44.83   14.69   30.14    0.00    0.00    0.00    0.00    3.37    1.12    2.24    0.00    0.00    0.00       0
 2016 354    39    3699   0.132    1551   0.055    8913       0    8913    1156    2076    1544     782    3355       0      17       5       9       1       1       2      70       9      16      12       6      27    8778    1127    2019    1531     775    3326    0.00   48.12   15.79   32.33    0.00    0.00    0.00    0.00   44.75   14.67   30.08    0.00    0.00    0.00    0.00    3.36    1.12    2.24    0.00    0.00    0.00       0
 2016 355    40    3699   0.132    1551   0.055    8913       0    8913    1156    2076    1544     782    3355       0      17       5       9       1       1       2      70       9      16      12       6      27    8778    1127    2019    1531     775    3326    0.00   48.04   15.77   32.28    0.00    0.00    0.00    0.00   44.68   14.65   30.03    0.00    0.00    0.00    0.00    3.36    1.12    2.24    0.00    0.00    0.00       0
 2016 356    41    3699   0.132    1551   0.055    8913       0    8913    1156    2076    1544     782    3355       0      17       5       9       1       1       2      70       9      16      12       6      27    8778    1127    2019    1531     775    3326    0.00   47.97   15.74   32.23    0.00    0.00    0.00    0.00   44.61   14.62   29.98    0.00    0.00    0.00    0.00    3.36    1.12    2.24    0.00    0.00    0.00       0
 2016 357    42    3699   0.132    1551   0.055    8913       0    8913    1156    2076    1544     782    3355       0      17       5       9       1       1       2      70       9      16      12       6      27    8778    1127    2019    1531     775    3326    0.00   47.90   15.72   32.18    0.00    0.00    0.00    0.00   44.54   14.60   29.93    0.00    0.00    0.00    0.00    3.36    1.12    2.24    0.00    0.00    0.00       0
 2016 358    43    3699   0.132    1551   0.055    8913       0    8913    1156    2076    1544     782    3355       0      18       5       9       1       1       2      70       9      16      12       6      27    8778    1127    2019    1531     775    3326    0.00   47.82   15.70   32.12    0.00    0.00    0.00    0.00   44.45   14.58   29.88    0.00    0.00    0.00    0.00    3.36    1.12    2.24    0.00    0.00    0.00       0
 2016 359    44    3699   0.132    1551   0.055    8913       0    8913    1156    2076    1544     782    3355       0      18       5       9       1       1       2      70       9      16      12       6      27    8778    1127    2019    1531     775    3326    0.00   47.73   15.68   32.06    0.00    0.00    0.00    0.00   44.37   14.56   29.81    0.00    0.00    0.00    0.00    3.36    1.12    2.24    0.00    0.00    0.00       0
 2016 360    45    3699   0.132    1551   0.055    8913       0    8913    1156    2076    1544     782    3355       0      18       5       9       1       1       2      70       9      16      12       6      27    8778    1127    2019    1531     775    3326    0.00   47.63   15.65   31.98    0.00    0.00    0.00    0.00   44.27   14.53   29.74    0.00    0.00    0.00    0.00    3.36    1.12    2.24    0.00    0.00    0.00       0
 2016 361    46    3700   0.132    1551   0.055    8913       0    8913    1156    2076    1544     782    3355       0      18       5       9       1       1       2      70       9      16      12       6      27    8777    1127    2019    1531     775    3326    0.00   47.52   15.62   31.89    0.00    0.00    0.00    0.00   44.16   14.51   29.65    0.00    0.00    0.00    0.00    3.36    1.12    2.24    0.00    0.00    0.00       0
 2016 362    47    3700   0.132    1551   0.055    8913       0    8913    1156    2076    1544     782    3355       0      18       5       9       1       1       2      70       9      16      12       6      27    8777    1127    2019    1531     775    3326    0.00   47.39   15.59   31.80    0.00    0.00    0.00    0.00   44.03   14.47   29.56    0.00    0.00    0.00    0.00    3.36    1.12    2.24    0.00    0.00    0.00       0
 2016 363    48    3700   0.132    1551   0.055    8913       0    8913    1156    2076    1544     782    3355       0      18       5       9       1       1       2      70       9      16      12       6      27    8777    1127    2019    1531     775    3326    0.00   47.25   15.54   31.71    0.00    0.00    0.00    0.00   43.89   14.42   29.47    0.00    0.00    0.00    0.00    3.36    1.12    2.24    0.00    0.00    0.00       0
 2016 364    49    3700   0.132    1551   0.055    8913       0    8913    1156    2076    1544     782    3355       0      18       5      10       1       1       2      70       9      16      12       6      27    8777    1127    2019    1531     775    3326    0.00   47.09   15.49   31.60    0.00    0.00    0.00    0.00   43.73   14.37   29.36    0.00    0.00    0.00    0.00    3.36    1.12    2.24    0.00    0.00    0.00       0
 2016 365    50    3700   0.132    1551   0.055    8913       0    8913    1156    2076    1544     782    3355       0      18       5      10       1       1       2      70       9      16      12       6      27    8777    1127    2019    1531     775    3326    0.00   46.92   15.43   31.48    0.00    0.00    0.00    0.00   43.56   14.31   29.24    0.00    0.00    0.00    0.00    3.36    1.12    2.24    0.00    0.00    0.00       0
 2016 366    51    3700   0.132    1551   0.055    8913       0    8913    1156    2076    1544     782    3355       0      19       5      10       1       1       2      70       9      16      12       6      27    8777    1127    2019    1531     775    3326    0.00   46.73   15.37   31.36    0.00    0.00    0.00    0.00   43.37   14.25   29.12    0.00    0.00    0.00    0.00    3.36    1.12    2.24    0.00    0.00    0.00       0
 2017 001    52    3700   0.132    1551   0.055    8913       0    8913    1156    2076    1544     782    3355       0      19       5      10       1       1       2      70       9      16      12       6      27    8777    1127    2019    1531     775    3326    0.00   46.55   15.31   31.24    0.00    0.00    0.00    0.00   43.19   14.19   29.00    0.00    0.00    0.00    0.00    3.36    1.12    2.24    0.00    0.00    0.00       0
 2017 002    53    3701   0.132    1551   0.055    8913       0    8913    1156    2076    1544     782    3355       0      19       5      10       1       1       2      70       9      16      12       6      27    8777    1127    2019    1531     775    3326    0.00   46.39   15.25   31.13    0.00    0.00    0.00    0.00   43.03   14.13   28.89    0.00    0.00    0.00    0.00    3.36    1.12    2.24    0.00    0.00    0.00       0
 2017 003    54    3701   0.132    1551   0.055    8913       0    8913    1156    2076    1544     782    3355       0      19       5      10       1       1       2      70       9      16      12       6      27    8777    1127    2019    1531     775    3326    0.00   46.24   15.20   31.04    0.00    0.00    0.00    0.00   42.88   14.09   28.80    0.00    0.00    0.00    0.00    3.36    1.12    2.24    0.00    0.00    0.00       0
 2017 004    55    3701   0.132    1551   0.055    8913       0    8913    1156    2076    1544     782    3355       0      19       5      10       1       1       2      70       9      16      12       6      27    8777    1127    2019    1531     775    3326    0.00   46.08   15.15   30.93    0.00    0.00    0.00    0.00   42.72   14.03   28.69    0.00    0.00    0.00    0.00    3.36    1.12    2.24    0.00    0.00    0.00       0
 2017 005    56    3701   0.132    1551   0.055    8913       0    8913    1156    2076    1544     782    3355       0      19       5      10       1       1       2      70       9      16      12       6      27    8777    1127    2019    1531     775    3326    0.00   45.92   15.09   30.82    0.00    0.00    0.00    0.00   42.56   13.98   28.58    0.00    0.00    0.00    0.00    3.36    1.12    2.24    0.00    0.00    0.00       0
 2017 006    57    3701   0.132    1551   0.055    8913       0    8913    1156    2076    1544     782    3355       0      20       5      10       1       1       2      70       9      16      12       6      27    8777    1127    2019    1531     775    3326    0.00   45.76   15.04   30.72    0.00    0.00    0.00    0.00   42.40   13.92   28.48    0.00    0.00    0.00    0.00    3.36    1.12    2.24    0.00    0.00    0.00       0
 2017 007    58    3701   0.132    1551   0.055    8913       0    8913    1156    2076    1544     782    3355       0      20       5      10       1       1       2      70       9      16      12       6      27    8777    1127    2019    1531     775    3326    0.00   45.62   14.99   30.62    0.00    0.00    0.00    0.00   42.26   13.88   28.39    0.00    0.00    0.00    0.00    3.36    1.12    2.24    0.00    0.00    0.00       0
 2017 008    59    3702   0.132    1551   0.055    8913       0    8913    1156    2076    1544     782    3355       0      20       5      11       1       1       2      70       9      16      12       6      27    8777    1127    2019    1531     775    3326    0.00   45.50   14.95   30.54    0.00    0.00    0.00    0.00   42.14   13.84   28.31    0.00    0.00    0.00    0.00    3.35    1.12    2.24    0.00    0.00    0.00       0
 2017 009    60    3702   0.132    1551   0.055    8913       0    8913    1156    2076    1544     782    3355       0      20       5      11       1       1       2      70       9      16      12       6      27    8777    1127    2019    1531     775    3326    0.00   45.40   14.92   30.48    0.00    0.00    0.00    0.00   42.05   13.81   28.24    0.00    0.00    0.00    0.00    3.35    1.12    2.24    0.00    0.00    0.00       0
 2017 010    61    3702   0.132    1551   0.055    8913       0    8913    1156    2076    1544     782    3355       0      20       5      11       1       1       2      70       9      16      12       6      27    8777    1127    2019    1531     775    3326    0.00   45.33   14.90   30.43    0.00    0.00    0.00    0.00   41.98   13.78   28.20    0.00    0.00    0.00    0.00    3.35    1.12    2.24    0.00    0.00    0.00       0
 2017 011    62    3702   0.132    1551   0.055    8913       0    8913    1156    2076    1544     782    3355       0      20       5      11       1       1       2      70       9      16      12       6      27    8777    1127    2019    1531     775    3326    0.00   45.26   14.88   30.39    0.00    0.00    0.00    0.00   41.91   13.76   28.15    0.00    0.00    0.00    0.00    3.35    1.12    2.24    0.00    0.00    0.00       0
 2017 012    63    3702   0.132    1551   0.055    8913       0    8913    1156    2076    1544     782    3355       0      20       5      11       1       1       2      70       9      16      12       6      27    8777    1127    2019    1531     775    3326    0.00   45.19   14.86   30.33    0.00    0.00    0.00    0.00   41.83   13.74   28.09    0.00    0.00    0.00    0.00    3.35    1.12    2.24    0.00    0.00    0.00       0
 2017 013    64    3702   0.132    1551   0.055    8913       0    8913    1156    2076    1544     782    3355       0      20       5      11       1       1       2      71       9      16      12       6      27    8777    1127    2019    1531     775    3326    0.00   45.09   14.83   30.26    0.00    0.00    0.00    0.00   41.74   13.72   28.02    0.00    0.00    0.00    0.00    3.35    1.12    2.24    0.00    0.00    0.00       0
 2017 014    65    3702   0.132    1551   0.055    8913       0    8913    1156    2076    1544     782    3355       0      20       5      11       1       1       2      71       9      16      12       6      27    8777    1127    2019    1531     775    3326    0.00   44.98   14.80   30.17    0.00    0.00    0.00    0.00   41.62   13.69   27.94    0.00    0.00    0.00    0.00    3.35    1.12    2.24    0.00    0.00    0.00       0
 2017 015    66    3702   0.132    1551   0.055    8913       0    8913    1156    2076    1544     782    3355       0      20       5      11       1       1       2      71       9      16      12       6      27    8777    1127    2019    1531     775    3326    0.00   44.84   14.77   30.08    0.00    0.00    0.00    0.00   41.49   13.65   27.84    0.00    0.00    0.00    0.00    3.35    1.12    2.24    0.00    0.00    0.00       0
 2017 016    67    3702   0.132    1551   0.055    8913       0    8913    1156    2076    1544     782    3355       0      21       5      11       1       1       2      71       9      16      12       6      27    8777    1127    2019    1531     775    3326    0.00   44.70   14.73   29.97    0.00    0.00    0.00    0.00   41.35   13.61   27.74    0.00    0.00    0.00    0.00    3.35    1.12    2.24    0.00    0.00    0.00       0
 2017 017    68    3702   0.132    1551   0.055    8913       0    8913    1156    2076    1544     782    3355       0      21       5      11       1       1       2      71       9      16      12       6      27    8777    1127    2019    1531     775    3326    0.00   44.56   14.69   29.88    0.00    0.00    0.00    0.00   41.21   13.57   27.64    0.00    0.00    0.00    0.00    3.35    1.12    2.23    0.00    0.00    0.00       0
 2017 018    69    3703   0.132    1551   0.055    8913       0    8913    1156    2076    1544     782    3355       0      21       6      11       1       1       2      71       9      16      12       6      27    8777    1127    2019    1531     775    3326    0.00   44.44   14.65   29.79    0.00    0.00    0.00    0.00   41.09   13.54   27.56    0.00    0.00    0.00    0.00    3.35    1.12    2.23    0.00    0.00    0.00       0
 2017 019    70    3703   0.132    1551   0.055    8913       0    8913    1156    2076    1544     782    3355       0      21       6      11       1       1       2      71       9      16      12       6      27    8777    1127    2019    1531     775    3326    0.00   44.35   14.62   29.73    0.00    0.00    0.00    0.00   41.00   13.51   27.50    0.00    0.00    0.00    0.00    3.35    1.12    2.23    0.00    0.00    0.00       0
 2017 020    71    3703   0.132    1551   0.055    8913       0    8913    1156    2076    1544     782    3355       0      21       6      11       1       1       2      71       9      16      12       6      27    8777    1127    2019    1531     775    3326    0.00   44.25   14.59   29.66    0.00    0.00    0.00    0.00   40.90   13.47   27.42    0.00    0.00    0.00    0.00    3.35    1.12    2.23    0.00    0.00    0.00       0
 2017 021    72    3703   0.132    1551   0.055    8913       0    8913    1156    2076    1544     782    3355       0      21       6      12       1       1       2      71       9      16      12       6      27    8777    1127    2019    1531     775    3326    0.00   44.12   14.55   29.57    0.00    0.00    0.00    0.00   40.77   13.43   27.34    0.00    0.00    0.00    0.00    3.35    1.12    2.23    0.00    0.00    0.00       0
 2017 022    73    3703   0.132    1551   0.055    8913       0    8913    1156    2076    1544     782    3355       0      21       6      12       1       1       2      71       9      16      12       6      27    8777    1127    2019    1531     775    3326    0.00   43.99   14.50   29.48    0.00    0.00    0.00    0.00   40.64   13.39   27.25    0.00    0.00    0.00    0.00    3.35    1.12    2.23    0.00    0.00    0.00       0
 2017 023    74    3703   0.132    1551   0.055    8913       0    8913    1156    2076    1544     782    3355       0      21       6      12       1       1       2      71       9      16      12       6      27    8777    1127    2019    1531     775    3326    0.00   43.82   14.45   29.37    0.00    0.00    0.00    0.00   40.47   13.33   27.14    0.00    0.00    0.00    0.00    3.35    1.11    2.23    0.00    0.00    0.00       0
 2017 024    75    3703   0.132    1551   0.055    8913       0    8913    1156    2076    1544     782    3355       0      22       6      12       1       1       2      71       9      16      12       6      27    8777    1127    2019    1531     775    3326    0.00   43.61   14.37   29.23    0.00    0.00    0.00    0.00   40.26   13.26   27.00    0.00    0.00    0.00    0.00    3.35    1.11    2.23    0.00    0.00    0.00       0
 2017 025    76    3704   0.132    1551   0.055    8913       0    8913    1156    2076    1544     782    3355       0      22       6      12       1       1       2      71       9      16      12       6      27    8777    1127    2019    1531     775    3326    0.00   43.38   14.30   29.08    0.00    0.00    0.00    0.00   40.04   13.18   26.85    0.00    0.00    0.00    0.00    3.35    1.11    2.23    0.00    0.00    0.00       0
 2017 026    77    3704   0.132    1551   0.055    8913       0    8913    1156    2076    1544     782    3355       0      22       6      12       1       1       2      71       9      16      12       6      27    8777    1127    2019    1531     775    3326    0.00   43.13   14.21   28.92    0.00    0.00    0.00    0.00   39.79   13.10   26.69    0.00    0.00    0.00    0.00    3.34    1.11    2.23    0.00    0.00    0.00       0
 2017 027    78    3704   0.132    1551   0.055    8913       0    8913    1156    2076    1544     782    3355       0      22       6      12       1       1       2      71       9      16      12       6      27    8777    1127    2019    1531     775    3326    0.00   42.92   14.15   28.77    0.00    0.00    0.00    0.00   39.58   13.03   26.54    0.00    0.00    0.00    0.00    3.34    1.11    2.23    0.00    0.00    0.00       0
 2017 028    79    3704   0.132    1551   0.055    8913       0    8913    1156    2076    1544     782    3355       0      22       6      12       1       1       2      71       9      16      12       6      27    8777    1127    2019    1531     775    3326    0.00   42.72   14.09   28.63    0.00    0.00    0.00    0.00   39.38   12.97   26.40    0.00    0.00    0.00    0.00    3.34    1.11    2.23    0.00    0.00    0.00       0
 2017 029    80    3704   0.132    1551   0.055    8913       0    8913    1156    2076    1544     782    3355       0      22       6      12       1       1       2      71       9      16      12       6      27    8777    1127    2019    1531     775    3326    0.00   42.56   14.04   28.52    0.00    0.00    0.00    0.00   39.22   12.93   26.29    0.00    0.00    0.00    0.00    3.34    1.11    2.23    0.00    0.00    0.00       0
 2017 030    81    3704   0.132    1551   0.055    8913       0    8913    1156    2076    1544     782    3355       0      23       6      13       1       1       2      71       9      16      12       6      27    8777    1127    2019    1531     775    3326    0.00   42.42   13.99   28.42    0.00    0.00    0.00    0.00   39.07   12.88   26.19    0.00    0.00    0.00    0.00    3.34    1.11    2.23    0.00    0.00    0.00       0
 2017 031    82    3705   0.132    1551   0.055    8913       0    8913    1156    2076    1544     782    3355       0      23       6      13       1       1       2      71       9      16      12       6      27    8777    1127    2019    1531     775    3326    0.00   42.28   13.95   28.33    0.00    0.00    0.00    0.00   38.94   12.84   26.10    0.00    0.00    0.00    0.00    3.34    1.11    2.23    0.00    0.00    0.00       0
 2017 032    83    3705   0.132    1551   0.055    8913       0    8913    1156    2076    1544     782    3355       0      23       6      13       1       1       2      71       9      16      12       6      27    8777    1127    2019    1531     775    3326    0.00   42.17   13.92   28.25    0.00    0.00    0.00    0.00   38.83   12.80   26.03    0.00    0.00    0.00    0.00    3.34    1.11    2.23    0.00    0.00    0.00       0
 2017 033    84    3705   0.132    1551   0.055    8913       0    8913    1156    2076    1544     782    3355       0      23       6      13       1       1       2      71       9      16      12       6      27    8777    1127    2019    1531     775    3326    0.00   42.06   13.88   28.18    0.00    0.00    0.00    0.00   38.72   12.77   25.95    0.00    0.00    0.00    0.00    3.34    1.11    2.23    0.00    0.00    0.00       0
 2017 034    85    3705   0.132    1551   0.055    8913       0    8913    1156    2076    1544     782    3355       0      23       6      13       1       1       2      71       9      16      12       6      27    8777    1127    2019    1531     775    3326    0.00   41.93   13.84   28.09    0.00    0.00    0.00    0.00   38.59   12.73   25.86    0.00    0.00    0.00    0.00    3.34    1.11    2.23    0.00    0.00    0.00       0
 2017 035    86    3705   0.132    1551   0.055    8913       0    8913    1156    2076    1544     782    3355       0      23       6      13       1       1       2      71       9      16      12       6      27    8777    1127    2019    1531     775    3326    0.00   41.80   13.80   28.00    0.00    0.00    0.00    0.00   38.46   12.69   25.78    0.00    0.00    0.00    0.00    3.34    1.11    2.23    0.00    0.00    0.00       0
 2017 036    87    3705   0.132    1551   0.055    8913       0    8913    1156    2076    1544     782    3355       0      23       6      13       1       1       2      71       9      16      12       6      27    8777    1127    2019    1531     775    3326    0.00   41.67   13.76   27.92    0.00    0.00    0.00    0.00   38.34   12.64   25.69    0.00    0.00    0.00    0.00    3.34    1.11    2.23    0.00    0.00    0.00       0
 2017 037    88    3705   0.132    1551   0.055    8913       0    8913    1156    2076    1544     782    3355       0      23       6      13       1       1       2      71       9      16      12       6      27    8777    1127    2019    1531     775    3326    0.00   41.55   13.71   27.83    0.00    0.00    0.00    0.00   38.21   12.60   25.60    0.00    0.00    0.00    0.00    3.34    1.11    2.23    0.00    0.00    0.00       0
 2017 038    89    3705   0.132    1551   0.055    8913       0    8913    1156    2076    1544     782    3355       0      23       6      13       1       1       2      71       9      16      12       6      27    8777    1127    2019    1531     775    3326    0.00   41.42   13.67   27.75    0.00    0.00    0.00    0.00   38.08   12.56   25.52    0.00    0.00    0.00    0.00    3.34    1.11    2.23    0.00    0.00    0.00       0
 2017 039    90    3705   0.132    1551   0.055    8913       0    8913    1156    2076    1544     782    3355       0      24       6      13       1       1       2      71       9      16      12       6      27    8777    1127    2019    1531     775    3326    0.00   41.30   13.63   27.67    0.00    0.00    0.00    0.00   37.96   12.52   25.44    0.00    0.00    0.00    0.00    3.34    1.11    2.23    0.00    0.00    0.00       0
 2017 040    91    3706   0.132    1551   0.055    8913       0    8913    1156    2076    1544     782    3355       0      24       6      13       1       1       2      71       9      16      12       6      27    8777    1127    2019    1531     775    3326    0.00   41.20   13.60   27.60    0.00    0.00    0.00    0.00   37.86   12.49   25.37    0.00    0.00    0.00    0.00    3.34    1.11    2.23    0.00    0.00    0.00       0
 2017 041    92    3706   0.132    1551   0.055    8913       0    8913    1156    2076    1544     782    3355       0      24       6      13       1       1       2      71       9      16      12       6      27    8777    1127    2019    1531     775    3326    0.00   41.06   13.55   27.51    0.00    0.00    0.00    0.00   37.73   12.44   25.28    0.00    0.00    0.00    0.00    3.34    1.11    2.22    0.00    0.00    0.00       0
 2017 042    93    3706   0.132    1551   0.055    8913       0    8913    1156    2076    1544     782    3355       0      24       6      13       1       1       2      71       9      16      12       6      27    8777    1127    2019    1531     775    3326    0.00   40.92   13.51   27.41    0.00    0.00    0.00    0.00   37.59   12.40   25.19    0.00    0.00    0.00    0.00    3.34    1.11    2.22    0.00    0.00    0.00       0
 2017 043    94    3706   0.132    1551   0.055    8913       0    8913    1156    2076    1544     782    3355       0      24       7      14       1       1       2      71       9      16      12       6      27    8777    1127    2019    1531     775    3326    0.00   40.78   13.46   27.32    0.00    0.00    0.00    0.00   37.45   12.35   25.10    0.00    0.00    0.00    0.00    3.33    1.11    2.22    0.00    0.00    0.00       0
 2017 044    95    3706   0.132    1551   0.055    8913       0    8913    1156    2076    1544     782    3355       0      24       7      14       1       1       2      71       9      16      12       6      27    8777    1127    2019    1531     775    3326    0.00   40.63   13.41   27.22    0.00    0.00    0.00    0.00   37.29   12.30   24.99    0.00    0.00    0.00    0.00    3.33    1.11    2.22    0.00    0.00    0.00       0
 2017 045    96    3706   0.132    1551   0.055    8912       0    8912    1156    2076    1544     782    3355       0      24       7      14       1       1       2      71       9      16      12       6      27    8777    1127    2019    1531     775    3326    0.00   40.47   13.35   27.11    0.00    0.00    0.00    0.00   37.13   12.24   24.89    0.00    0.00    0.00    0.00    3.33    1.11    2.22    0.00    0.00    0.00       0
 2017 046    97    3706   0.132    1551   0.055    8912       0    8912    1156    2076    1544     782    3355       0      24       7      14       1       1       2      71       9      17      12       6      27    8777    1127    2019    1531     775    3326    0.00   40.31   13.30   27.01    0.00    0.00    0.00    0.00   36.97   12.19   24.79    0.00    0.00    0.00    0.00    3.33    1.11    2.22    0.00    0.00    0.00       0
 2017 047    98    3707   0.132    1551   0.055    8912       0    8912    1156    2076    1544     782    3355       0      25       7      14       1       1       2      71       9      17      12       6      27    8777    1127    2019    1531     775    3326    0.00   40.10   13.22   26.88    0.00    0.00    0.00    0.00   36.77   12.11   24.66    0.00    0.00    0.00    0.00    3.33    1.11    2.22    0.00    0.00    0.00       0
 2017 048    99    3707   0.132    1551   0.055    8912       0    8912    1156    2076    1544     782    3354       0      25       7      14       1       1       2      71       9      17      12       6      27    8777    1127    2019    1531     775    3326    0.00   39.84   13.13   26.71    0.00    0.00    0.00    0.00   36.51   12.02   24.49    0.00    0.00    0.00    0.00    3.33    1.11    2.22    0.00    0.00    0.00       0
 2017 049   100    3707   0.132    1551   0.055    8912       0    8912    1156    2076    1544     782    3354       0      25       7      14       1       1       2      71       9      17      12       6      27    8777    1127    2019    1531     775    3326    0.00   39.58   13.04   26.55    0.00    0.00    0.00    0.00   36.25   11.93   24.33    0.00    0.00    0.00    0.00    3.33    1.11    2.22    0.00    0.00    0.00       0
 2017 050   101    3707   0.132    1551   0.055    8912       0    8912    1156    2076    1544     782    3354       0      25       7      14       1       1       2      71       9      17      12       6      27    8777    1127    2019    1531     775    3326    0.00   39.34   12.95   26.39    0.00    0.00    0.00    0.00   36.01   11.84   24.17    0.00    0.00    0.00    0.00    3.33    1.11    2.22    0.00    0.00    0.00       0
 2017 051   102    3708   0.132    1551   0.055    8912       0    8912    1156    2076    1544     782    3354       0      26       7      15       1       1       2      71       9      17      12       6      27    8777    1127    2019    1531     775    3326    0.00   39.03   12.83   26.20    0.00    0.00    0.00    0.00   35.70   11.73   23.98    0.00    0.00    0.00    0.00    3.33    1.11    2.22    0.00    0.00    0.00       0
 2017 052   103    3708   0.132    1551   0.055    8912       0    8912    1156    2076    1544     782    3354       0      26       7      15       1       1       2      71       9      17      12       6      27    8777    1127    2019    1531     775    3325    0.00   38.64   12.70   25.95    0.00    0.00    0.00    0.00   35.32   11.59   23.73    0.00    0.00    0.00    0.00    3.32    1.11    2.22    0.00    0.00    0.00       0
 2017 053   104    3708   0.132    1551   0.055    8912       0    8912    1156    2076    1544     782    3354       0      26       7      15       1       1       2      71       9      17      12       6      27    8777    1127    2019    1531     775    3325    0.00   38.17   12.53   25.63    0.00    0.00    0.00    0.00   34.84   11.42   23.42    0.00    0.00    0.00    0.00    3.32    1.11    2.22    0.00    0.00    0.00       0
 2017 054   105    3709   0.132    1551   0.055    8912       0    8912    1156    2076    1544     782    3354       0      27       7      15       1       1       2      71       9      17      12       6      27    8777    1127    2019    1531     775    3325    0.00   37.54   12.33   25.21    0.00    0.00    0.00    0.00   34.22   11.22   23.00    0.00    0.00    0.00    0.00    3.32    1.11    2.21    0.00    0.00    0.00       0
 2017 055   106    3710   0.132    1551   0.055    8912       0    8912    1156    2076    1544     782    3354       0      27       8      16       1       1       2      71       9      17      12       6      27    8777    1127    2019    1531     775    3325    0.00   36.76   12.07   24.69    0.00    0.00    0.00    0.00   33.44   10.96   22.48    0.00    0.00    0.00    0.00    3.32    1.10    2.21    0.00    0.00    0.00       0
 2017 056   107    3710   0.132    1551   0.055    8912       0    8912    1156    2076    1544     782    3354       0      28       8      16       1       1       2      71       9      17      12       6      27    8777    1127    2019    1531     775    3325    0.00   35.94   11.79   24.15    0.00    0.00    0.00    0.00   32.63   10.68   21.94    0.00    0.00    0.00    0.00    3.31    1.10    2.21    0.00    0.00    0.00       0
 2017 057   108    3711   0.132    1551   0.055    8912       0    8912    1156    2076    1544     782    3354       0      29       8      17       1       1       2      71       9      17      12       6      27    8777    1127    2019    1531     775    3325    0.00   35.36   11.64   23.72    0.00    0.00    0.00    0.00   32.05   10.54   21.51    0.00    0.00    0.00    0.00    3.31    1.10    2.21    0.00    0.00    0.00       0
 2017 058   109    3711   0.132    1551   0.055    8912       0    8912    1156    2076    1544     782    3354       0      29       8      17       1       1       2      71       9      17      12       6      27    8777    1127    2019    1531     775    3325    0.00   34.90   11.52   23.38    0.00    0.00    0.00    0.00   31.59   10.42   21.17    0.00    0.00    0.00    0.00    3.31    1.10    2.20    0.00    0.00    0.00       0
 2017 059   110    3712   0.132    1551   0.055    8912       0    8912    1156    2076    1544     782    3354       0      29       8      17       1       1       2      71       9      17      12       6      27    8777    1127    2019    1531     775    3325    0.00   34.58   11.43   23.14    0.00    0.00    0.00    0.00   31.27   10.33   20.94    0.00    0.00    0.00    0.00    3.30    1.10    2.20    0.00    0.00    0.00       0
 2017 060   111    3712   0.132    1551   0.055    8912       0    8912    1156    2076    1544     782    3354       0      30       8      17       1       1       2      71       9      17      12       6      27    8777    1127    2019    1531     775    3325    0.00   34.32   11.36   22.95    0.00    0.00    0.00    0.00   31.01   10.26   20.75    0.00    0.00    0.00    0.00    3.30    1.10    2.20    0.00    0.00    0.00       0
 2017 061   112    3712   0.132    1551   0.055    8912       0    8912    1156    2076    1544     782    3354       0      30       8      18       1       1       2      71       9      17      12       6      27    8777    1127    2019    1531     775    3325    0.00   34.08   11.30   22.79    0.00    0.00    0.00    0.00   30.78   10.20   20.59    0.00    0.00    0.00    0.00    3.30    1.10    2.20    0.00    0.00    0.00       0
 2017 062   113    3712   0.132    1551   0.055    8912       0    8912    1156    2076    1544     782    3354       0      30       8      18       1       1       2      71       9      17      12       6      27    8777    1127    2019    1531     775    3325    0.00   33.92   11.24   22.68    0.00    0.00    0.00    0.00   30.62   10.14   20.48    0.00    0.00    0.00    0.00    3.30    1.10    2.20    0.00    0.00    0.00       0
 2017 063   114    3712   0.132    1551   0.055    8912       0    8912    1156    2076    1544     782    3354       0      30       8      18       1       1       2      71       9      17      12       6      27    8777    1127    2019    1531     775    3325    0.00   33.74   11.18   22.57    0.00    0.00    0.00    0.00   30.44   10.08   20.37    0.00    0.00    0.00    0.00    3.30    1.10    2.20    0.00    0.00    0.00       0
 2017 064   115    3713   0.132    1551   0.055    8912       0    8912    1156    2076    1544     782    3354       0      30       8      18       1       1       2      71       9      17      12       6      27    8777    1127    2019    1531     775    3325    0.00   33.56   11.11   22.45    0.00    0.00    0.00    0.00   30.26   10.01   20.25    0.00    0.00    0.00    0.00    3.30    1.10    2.20    0.00    0.00    0.00       0
 2017 065   116    3713   0.132    1551   0.055    8912       0    8912    1156    2076    1544     782    3354       0      30       8      18       1       1       2      71       9      17      12       6      27    8777    1127    2019    1531     775    3325    0.00   33.40   11.05   22.34    0.00    0.00    0.00    0.00   30.10    9.96   20.14    0.00    0.00    0.00    0.00    3.30    1.10    2.20    0.00    0.00    0.00       0
 2017 066   117    3713   0.132    1551   0.055    8912       0    8912    1156    2076    1544     782    3354       0      30       9      18       1       1       2      71       9      17      12       6      27    8777    1127    2019    1531     775    3325    0.00   33.25   11.00   22.24    0.00    0.00    0.00    0.00   29.95    9.90   20.05    0.00    0.00    0.00    0.00    3.30    1.10    2.20    0.00    0.00    0.00       0
 2017 067   118    3713   0.132    1551   0.055    8912       0    8912    1156    2076    1544     782    3354       0      31       9      18       1       1       2      72       9      17      12       6      27    8776    1127    2019    1531     775    3325    0.00   33.09   10.94   22.14    0.00    0.00    0.00    0.00   29.79    9.85   19.94    0.00    0.00    0.00    0.00    3.30    1.10    2.20    0.00    0.00    0.00       0
 2017 068   119    3713   0.132    1551   0.055    8912       0    8912    1156    2076    1544     782    3354       0      31       9      18       1       1       2      72       9      17      12       6      27    8776    1127    2019    1531     775    3325    0.00   32.93   10.89   22.04    0.00    0.00    0.00    0.00   29.63    9.79   19.84    0.00    0.00    0.00    0.00    3.30    1.10    2.20    0.00    0.00    0.00       0
 2017 069   120    3713   0.132    1551   0.055    8912       0    8912    1156    2076    1544     782    3354       0      31       9      18       1       1       2      72       9      17      12       6      27    8776    1127    2019    1531     775    3325    0.00   32.72   10.81   21.90    0.00    0.00    0.00    0.00   29.42    9.72   19.71    0.00    0.00    0.00    0.00    3.29    1.10    2.20    0.00    0.00    0.00       0
 2017 070   121    3714   0.132    1551   0.055    8912       0    8912    1156    2076    1544     782    3354       0      31       9      18       1       1       2      72       9      17      12       6      27    8776    1127    2019    1531     775    3325    0.00   32.45   10.72   21.73    0.00    0.00    0.00    0.00   29.16    9.62   19.54    0.00    0.00    0.00    0.00    3.29    1.10    2.20    0.00    0.00    0.00       0
 2017 071   122    3714   0.132    1551   0.055    8911       0    8911    1156    2076    1544     782    3354       0      31       9      19       1       1       2      72       9      17      12       6      27    8776    1127    2019    1531     775    3325    0.00   32.17   10.62   21.56    0.00    0.00    0.00    0.00   28.88    9.52   19.36    0.00    0.00    0.00    0.00    3.29    1.10    2.19    0.00    0.00    0.00       0
 2017 072   123    3714   0.132    1551   0.055    8911       0    8911    1156    2076    1544     782    3354       0      31       9      19       1       1       2      72       9      17      12       6      27    8776    1127    2019    1531     775    3325    0.00   31.96   10.54   21.42    0.00    0.00    0.00    0.00   28.67    9.44   19.23    0.00    0.00    0.00    0.00    3.29    1.10    2.19    0.00    0.00    0.00       0
 2017 073   124    3714   0.132    1551   0.055    8911       0    8911    1156    2076    1544     782    3354       0      32       9      19       1       1       2      72       9      17      12       6      27    8776    1127    2019    1531     775    3325    0.00   31.81   10.49   21.33    0.00    0.00    0.00    0.00   28.52    9.39   19.13    0.00    0.00    0.00    0.00    3.29    1.10    2.19    0.00    0.00    0.00       0
 2017 074   125    3714   0.132    1551   0.055    8911       0    8911    1156    2076    1544     782    3354       0      32       9      19       1       1       2      72       9      17      12       6      27    8776    1127    2019    1531     775    3325    0.00   31.69   10.44   21.25    0.00    0.00    0.00    0.00   28.40    9.35   19.06    0.00    0.00    0.00    0.00    3.29    1.10    2.19    0.00    0.00    0.00       0
 2017 075   126    3714   0.132    1551   0.055    8911       0    8911    1156    2076    1544     782    3354       0      32       9      19       1       1       2      72       9      17      12       6      27    8776    1127    2019    1531     775    3325    0.00   31.59   10.41   21.19    0.00    0.00    0.00    0.00   28.31    9.31   18.99    0.00    0.00    0.00    0.00    3.29    1.09    2.19    0.00    0.00    0.00       0
 2017 076   127    3714   0.132    1551   0.055    8911       0    8911    1156    2076    1544     782    3354       0      32       9      19       1       1       2      72       9      17      12       6      27    8776    1127    2019    1531     775    3325    0.00   31.51   10.38   21.13    0.00    0.00    0.00    0.00   28.22    9.28   18.94    0.00    0.00    0.00    0.00    3.29    1.09    2.19    0.00    0.00    0.00       0
 2017 077   128    3715   0.132    1551   0.055    8911       0    8911    1156    2076    1544     782    3354       0      32       9      19       1       1       2      72       9      17      12       6      27    8776    1127    2019    1531     775    3325    0.00   31.43   10.35   21.08    0.00    0.00    0.00    0.00   28.14    9.25   18.89    0.00    0.00    0.00    0.00    3.29    1.09    2.19    0.00    0.00    0.00       0
 2017 078   129    3715   0.132    1551   0.055    8911       0    8911    1156    2076    1544     782    3354       0      32       9      19       1       1       2      72       9      17      12       6      27    8776    1127    2019    1531     775    3325    0.00   31.36   10.32   21.04    0.00    0.00    0.00    0.00   28.07    9.23   18.84    0.00    0.00    0.00    0.00    3.29    1.09    2.19    0.00    0.00    0.00       0
 2017 079   130    3715   0.132    1551   0.055    8911       0    8911    1156    2076    1544     782    3354       0      32       9      19       1       1       2      72       9      17      12       6      27    8776    1127    2019    1531     775    3325    0.00   31.27   10.29   20.98    0.00    0.00    0.00    0.00   27.98    9.20   18.78    0.00    0.00    0.00    0.00    3.29    1.09    2.19    0.00    0.00    0.00       0
 2017 080   131    3715   0.132    1551   0.055    8911       0    8911    1156    2076    1544     782    3354       0      32       9      19       1       1       2      72       9      17      12       6      27    8776    1127    2019    1531     775    3325    0.00   31.15   10.25   20.90    0.00    0.00    0.00    0.00   27.86    9.16   18.71    0.00    0.00    0.00    0.00    3.29    1.09    2.19    0.00    0.00    0.00       0
 2017 081   132    3715   0.132    1551   0.055    8911       0    8911    1156    2076    1544     782    3354       0      32       9      19       1       1       2      72      10      17      12       6      27    8776    1127    2019    1531     775    3325    0.00   31.00   10.20   20.80    0.00    0.00    0.00    0.00   27.72    9.11   18.61    0.00    0.00    0.00    0.00    3.28    1.09    2.19    0.00    0.00    0.00       0
 2017 082   133    3715   0.132    1551   0.055    8911       0    8911    1156    2076    1544     782    3354       0      32       9      19       1       1       2      72      10      17      12       6      27    8776    1127    2019    1531     775    3325    0.00   30.78   10.12   20.66    0.00    0.00    0.00    0.00   27.50    9.03   18.47    0.00    0.00    0.00    0.00    3.28    1.09    2.19    0.00    0.00    0.00       0
 2017 083   134    3715   0.132    1551   0.055    8911       0    8911    1156    2076    1544     782    3354       0      33       9      19       1       1       2      72      10      17      12       6      27    8776    1127    2018    1531     775    3325    0.00   30.52   10.03   20.49    0.00    0.00    0.00    0.00   27.24    8.93   18.30    0.00    0.00    0.00    0.00    3.28    1.09    2.19    0.00    0.00    0.00       0
 2017 084   135    3716   0.132    1551   0.055    8911       0    8911    1156    2076    1544     782    3354       0      33       9      20       1       1       2      72      10      17      12       6      27    8776    1127    2018    1531     775    3325    0.00   30.29    9.94   20.35    0.00    0.00    0.00    0.00   27.01    8.85   18.16    0.00    0.00    0.00    0.00    3.28    1.09    2.19    0.00    0.00    0.00       0
 2017 085   136    3716   0.132    1551   0.055    8911       0    8911    1156    2076    1544     782    3354       0      33       9      20       1       1       2      72      10      17      12       6      27    8776    1127    2018    1531     775    3325    0.00   30.01    9.84   20.17    0.00    0.00    0.00    0.00   26.73    8.74   17.98    0.00    0.00    0.00    0.00    3.28    1.09    2.19    0.00    0.00    0.00       0
 2017 086   137    3716   0.132    1551   0.055    8911       0    8911    1156    2076    1544     782    3354       0      33       9      20       1       1       2      72      10      17      12       6      27    8776    1127    2018    1531     775    3325    0.00   29.75    9.75   20.01    0.00    0.00    0.00    0.00   26.48    8.66   17.82    0.00    0.00    0.00    0.00    3.28    1.09    2.19    0.00    0.00    0.00       0
 2017 087   138    3716   0.132    1551   0.055    8911       0    8911    1156    2076    1544     782    3354       0      33      10      20       1       1       2      72      10      17      12       6      27    8776    1127    2018    1531     775    3325    0.00   29.51    9.66   19.85    0.00    0.00    0.00    0.00   26.23    8.57   17.66    0.00    0.00    0.00    0.00    3.28    1.09    2.18    0.00    0.00    0.00       0
 2017 088   139    3717   0.132    1551   0.055    8911       0    8911    1156    2076    1544     782    3354       0      34      10      20       1       1       2      72      10      17      12       6      27    8776    1127    2018    1531     775    3325    0.00   29.21    9.55   19.66    0.00    0.00    0.00    0.00   25.94    8.46   17.48    0.00    0.00    0.00    0.00    3.27    1.09    2.18    0.00    0.00    0.00       0
 2017 089   140    3717   0.133    1550   0.055    8911       0    8911    1156    2076    1544     782    3354       0      34      10      20       1       1       2      72      10      17      12       6      27    8776    1127    2018    1531     775    3325    0.00   28.85    9.41   19.43    0.00    0.00    0.00    0.00   25.58    8.32   17.25    0.00    0.00    0.00    0.00    3.27    1.09    2.18    0.00    0.00    0.00       0
 2017 090   141    3717   0.133    1550   0.055    8911       0    8911    1156    2076    1544     782    3354       0      34      10      21       1       1       2      72      10      17      12       6      27    8776    1127    2018    1531     775    3325    0.00   28.47    9.27   19.20    0.00    0.00    0.00    0.00   25.20    8.18   17.02    0.00    0.00    0.00    0.00    3.27    1.09    2.18    0.00    0.00    0.00       0
 2017 091   142    3717   0.133    1550   0.055    8911       0    8911    1156    2075    1544     782    3354       0      34      10      21       1       1       2      72      10      17      12       6      27    8776    1127    2018    1531     775    3325    0.00   28.25    9.19   19.06    0.00    0.00    0.00    0.00   24.98    8.10   16.88    0.00    0.00    0.00    0.00    3.27    1.09    2.18    0.00    0.00    0.00       0
 2017 092   143    3718   0.133    1550   0.055    8911       0    8911    1156    2075    1544     782    3354       0      35      10      21       1       1       2      72      10      17      12       6      27    8776    1127    2018    1531     775    3325    0.00   28.05    9.12   18.93    0.00    0.00    0.00    0.00   24.78    8.04   16.75    0.00    0.00    0.00    0.00    3.27    1.09    2.18    0.00    0.00    0.00       0
 2017 093   144    3718   0.133    1550   0.055    8911       0    8911    1155    2075    1544     782    3354       0      35      10      21       1       1       2      72      10      17      12       6      27    8776    1127    2018    1531     775    3325    0.00   27.87    9.06   18.81    0.00    0.00    0.00    0.00   24.60    7.97   16.63    0.00    0.00    0.00    0.00    3.26    1.09    2.18    0.00    0.00    0.00       0
 2017 094   145    3718   0.133    1550   0.055    8911       0    8911    1155    2075    1544     782    3354       0      35      10      21       1       1       2      72      10      17      12       6      27    8776    1127    2018    1531     775    3325    0.00   27.66    8.98   18.68    0.00    0.00    0.00    0.00   24.39    7.90   16.50    0.00    0.00    0.00    0.00    3.26    1.09    2.18    0.00    0.00    0.00       0
 2017 095   146    3718   0.133    1550   0.055    8911       0    8911    1155    2075    1544     782    3354       0      35      10      21       1       1       2      72      10      17      12       6      27    8776    1127    2018    1531     775    3325    0.00   27.45    8.92   18.53    0.00    0.00    0.00    0.00   24.19    7.83   16.36    0.00    0.00    0.00    0.00    3.26    1.09    2.18    0.00    0.00    0.00       0
 2017 096   147    3718   0.133    1550   0.055    8911       0    8911    1155    2075    1544     782    3354       0      35      10      21       1       1       2      72      10      17      12       6      27    8776    1127    2018    1530     775    3325    0.00   27.26    8.85   18.41    0.00    0.00    0.00    0.00   24.00    7.77   16.23    0.00    0.00    0.00    0.00    3.26    1.08    2.18    0.00    0.00    0.00       0
 2017 097   148    3718   0.133    1550   0.055    8911       0    8911    1155    2075    1544     782    3354       0      35      10      21       1       1       2      72      10      17      12       6      27    8776    1127    2018    1530     775    3325    0.00   27.05    8.78   18.27    0.00    0.00    0.00    0.00   23.79    7.69   16.10    0.00    0.00    0.00    0.00    3.26    1.08    2.17    0.00    0.00    0.00       0
 2017 098   149    3719   0.133    1550   0.055    8911       0    8911    1155    2075    1544     782    3354       0      35      10      21       1       1       2      72      10      17      12       6      27    8776    1127    2018    1530     775    3325    0.00   26.85    8.71   18.14    0.00    0.00    0.00    0.00   23.59    7.63   15.96    0.00    0.00    0.00    0.00    3.26    1.08    2.17    0.00    0.00    0.00       0
 2017 099   150    3719   0.133    1550   0.055    8911       0    8911    1155    2075    1544     782    3354       0      36      10      21       1       1       2      72      10      17      12       6      27    8776    1127    2018    1530     775    3325    0.00   26.63    8.63   18.00    0.00    0.00    0.00    0.00   23.38    7.55   15.83    0.00    0.00    0.00    0.00    3.26    1.08    2.17    0.00    0.00    0.00       0
 2017 100   151    3719   0.133    1550   0.055    8910       0    8910    1155    2075    1544     782    3354       0      36      10      22       1       1       2      72      10      18      12       6      27    8776    1127    2018    1530     775    3325    0.00   26.41    8.55   17.86    0.00    0.00    0.00    0.00   23.15    7.47   15.69    0.00    0.00    0.00    0.00    3.25    1.08    2.17    0.00    0.00    0.00       0
 2017 101   152    3719   0.133    1550   0.055    8910       0    8910    1155    2075    1544     782    3354       0      36      10      22       1       1       2      73      10      18      12       6      27    8776    1127    2018    1530     775    3325    0.00   26.12    8.44   17.68    0.00    0.00    0.00    0.00   22.87    7.36   15.51    0.00    0.00    0.00    0.00    3.25    1.08    2.17    0.00    0.00    0.00       0
 2017 102   153    3719   0.133    1550   0.055    8910       0    8910    1155    2075    1544     782    3354       0      36      10      22       1       1       2      73      10      18      12       6      27    8776    1127    2018    1530     775    3325    0.00   25.80    8.35   17.45    0.00    0.00    0.00    0.00   22.55    7.26   15.29    0.00    0.00    0.00    0.00    3.25    1.08    2.17    0.00    0.00    0.00       0
 2017 103   154    3720   0.133    1550   0.055    8910       0    8910    1155    2075    1544     782    3354       0      36      11      22       1       1       2      73      10      18      12       6      27    8776    1127    2018    1530     775    3325    0.00   25.43    8.23   17.19    0.00    0.00    0.00    0.00   22.18    7.15   15.03    0.00    0.00    0.00    0.00    3.25    1.08    2.17    0.00    0.00    0.00       0
 2017 104   155    3720   0.133    1550   0.055    8910       0    8910    1155    2075    1544     782    3354       0      37      11      22       1       1       2      73      10      18      12       6      27    8776    1127    2018    1530     775    3325    0.00   25.02    8.10   16.92    0.00    0.00    0.00    0.00   21.78    7.02   14.76    0.00    0.00    0.00    0.00    3.24    1.08    2.17    0.00    0.00    0.00       0
 2017 105   156    3720   0.133    1550   0.055    8910       0    8910    1155    2075    1544     782    3354       0      37      11      22       1       1       2      73      10      18      12       6      27    8776    1127    2018    1530     775    3325    0.00   24.69    7.98   16.71    0.00    0.00    0.00    0.00   21.44    6.90   14.54    0.00    0.00    0.00    0.00    3.24    1.08    2.16    0.00    0.00    0.00       0
 2017 106   157    3721   0.133    1550   0.055    8910       0    8910    1155    2075    1544     782    3354       0      37      11      22       1       1       2      73      10      18      12       6      27    8776    1127    2018    1530     775    3325    0.00   24.33    7.85   16.48    0.00    0.00    0.00    0.00   21.09    6.77   14.32    0.00    0.00    0.00    0.00    3.24    1.08    2.16    0.00    0.00    0.00       0
 2017 107   158    3721   0.133    1550   0.055    8910       0    8910    1155    2075    1544     782    3354       0      37      11      23       1       1       2      73      10      18      12       6      27    8776    1127    2018    1530     775    3325    0.00   24.02    7.74   16.28    0.00    0.00    0.00    0.00   20.78    6.66   14.12    0.00    0.00    0.00    0.00    3.24    1.08    2.16    0.00    0.00    0.00       0
 2017 108   159    3721   0.133    1550   0.055    8910       0    8910    1155    2075    1544     782    3354       0      38      11      23       1       1       2      73      10      18      12       6      27    8776    1127    2018    1530     775    3325    0.00   23.68    7.62   16.06    0.00    0.00    0.00    0.00   20.45    6.55   13.90    0.00    0.00    0.00    0.00    3.23    1.08    2.16    0.00    0.00    0.00       0
 2017 109   160    3721   0.133    1550   0.055    8910       0    8910    1155    2075    1544     782    3354       0      38      11      23       1       1       2      73      10      18      12       6      27    8776    1127    2018    1530     775    3325    0.00   23.26    7.46   15.79    0.00    0.00    0.00    0.00   20.02    6.39   13.64    0.00    0.00    0.00    0.00    3.23    1.07    2.16    0.00    0.00    0.00       0
 2017 110   161    3722   0.133    1550   0.055    8910       0    8910    1155    2075    1544     782    3354       0      38      11      23       1       1       2      73      10      18      12       6      27    8776    1127    2018    1530     775    3325    0.00   22.76    7.28   15.49    0.00    0.00    0.00    0.00   19.54    6.20   13.33    0.00    0.00    0.00    0.00    3.23    1.07    2.15    0.00    0.00    0.00       0
 2017 111   162    3722   0.133    1550   0.055    8909       0    8909    1155    2075    1544     782    3354       0      38      11      23       1       1       2      73      10      18      12       6      27    8776    1127    2018    1530     775    3325    0.00   22.18    7.05   15.13    0.00    0.00    0.00    0.00   18.96    5.98   12.98    0.00    0.00    0.00    0.00    3.22    1.07    2.15    0.00    0.00    0.00       0
 2017 112   163    3723   0.133    1550   0.055    8909       0    8909    1155    2075    1544     782    3354       0      39      11      24       1       1       2      73      10      18      12       6      27    8776    1127    2018    1530     775    3325    0.00   21.72    6.92   14.81    0.00    0.00    0.00    0.00   18.50    5.85   12.66    0.00    0.00    0.00    0.00    3.22    1.07    2.15    0.00    0.00    0.00       0
 2017 113   164    3723   0.133    1550   0.055    8909       0    8909    1155    2075    1544     782    3354       0      39      11      24       1       1       2      73      10      18      12       6      27    8775    1127    2018    1530     775    3325    0.00   21.29    6.79   14.51    0.00    0.00    0.00    0.00   18.08    5.72   12.36    0.00    0.00    0.00    0.00    3.21    1.07    2.15    0.00    0.00    0.00       0
 2017 114   165    3723   0.133    1550   0.055    8909       0    8909    1155    2075    1544     782    3354       0      39      12      24       1       1       2      73      10      18      12       6      27    8775    1127    2018    1530     775    3325    0.00   20.89    6.65   14.23    0.00    0.00    0.00    0.00   17.68    5.59   12.09    0.00    0.00    0.00    0.00    3.21    1.07    2.14    0.00    0.00    0.00       0
 2017 115   166    3724   0.133    1550   0.055    8909       0    8909    1155    2075    1544     782    3354       0      40      12      24       1       1       2      74      10      18      12       6      27    8775    1127    2018    1530     775    3325    0.00   20.50    6.52   13.97    0.00    0.00    0.00    0.00   17.29    5.46   11.83    0.00    0.00    0.00    0.00    3.21    1.07    2.14    0.00    0.00    0.00       0
 2017 116   167    3724   0.133    1550   0.055    8909       0    8909    1155    2075    1544     782    3354       0      40      12      24       1       1       2      74      10      18      12       6      27    8775    1127    2018    1530     775    3325    0.00   20.11    6.39   13.72    0.00    0.00    0.00    0.00   16.91    5.32   11.58    0.00    0.00    0.00    0.00    3.20    1.06    2.14    0.00    0.00    0.00       0
 2017 117   168    3724   0.133    1550   0.055    8909       0    8909    1155    2075    1544     782    3354       0      40      12      24       1       1       2      74      10      18      12       6      27    8775    1127    2018    1530     775    3325    0.00   19.71    6.26   13.45    0.00    0.00    0.00    0.00   16.51    5.19   11.32    0.00    0.00    0.00    0.00    3.20    1.06    2.14    0.00    0.00    0.00       0
 2017 118   169    3725   0.133    1550   0.055    8909       0    8909    1155    2074    1544     782    3354       0      40      12      25       1       1       2      74      10      18      12       6      27    8775    1127    2018    1530     775    3325    0.00   19.29    6.15   13.14    0.00    0.00    0.00    0.00   16.10    5.09   11.01    0.00    0.00    0.00    0.00    3.20    1.06    2.13    0.00    0.00    0.00       0
 2017 119   170    3725   0.133    1550   0.055    8909       0    8909    1155    2074    1544     782    3354       0      40      12      25       1       1       2      74      10      18      12       6      27    8775    1127    2018    1530     775    3325    0.00   18.99    6.05   12.94    0.00    0.00    0.00    0.00   15.79    4.98   10.81    0.00    0.00    0.00    0.00    3.19    1.06    2.13    0.00    0.00    0.00       0
 2017 120   171    3725   0.133    1550   0.055    8909       0    8909    1155    2074    1544     782    3354       0      41      12      25       1       1       2      74      10      18      12       6      27    8775    1127    2018    1530     775    3325    0.00   18.72    5.95   12.76    0.00    0.00    0.00    0.00   15.53    4.89   10.63    0.00    0.00    0.00    0.00    3.19    1.06    2.13    0.00    0.00    0.00       0
 2017 121   172    3725   0.133    1550   0.055    8908       0    8908    1155    2074    1544     782    3354       0      41      12      25       1       1       2      74      10      19      12       6      27    8775    1127    2018    1530     775    3325    0.00   18.45    5.86   12.59    0.00    0.00    0.00    0.00   15.26    4.80   10.46    0.00    0.00    0.00    0.00    3.19    1.06    2.13    0.00    0.00    0.00       0
 2017 122   173    3725   0.133    1550   0.055    8908       0    8908    1155    2074    1544     782    3354       0      41      12      25       1       1       2      74      10      19      12       6      27    8775    1127    2018    1530     775    3325    0.00   18.26    5.79   12.46    0.00    0.00    0.00    0.00   15.07    4.74   10.34    0.00    0.00    0.00    0.00    3.18    1.06    2.13    0.00    0.00    0.00       0
 2017 123   174    3726   0.133    1550   0.055    8908       0    8908    1155    2074    1544     782    3354       0      41      12      25       1       1       2      74      10      19      12       6      27    8775    1127    2018    1530     775    3325    0.00   18.11    5.75   12.37    0.00    0.00    0.00    0.00   14.93    4.69   10.24    0.00    0.00    0.00    0.00    3.18    1.06    2.13    0.00    0.00    0.00       0
 2017 124   175    3726   0.133    1550   0.055    8908       0    8908    1155    2074    1544     782    3354       0      41      12      25       1       1       2      74      10      19      12       6      27    8775    1127    2018    1530     775    3325    0.00   17.99    5.70   12.28    0.00    0.00    0.00    0.00   14.81    4.65   10.16    0.00    0.00    0.00    0.00    3.18    1.06    2.12    0.00    0.00    0.00       0
[...]
 2017 244   295    3729   0.133    1549   0.055    8893       0    8893    1151    2066    1543     781    3351       0      33       9      20       1       1       2      89      15      28      12       6      27    8767    1126    2017    1529     774    3322    0.00    3.99    1.03    2.17    0.23    0.18    0.38    0.00    1.24    0.16    0.40    0.19    0.16    0.33    0.00    2.75    0.87    1.77    0.03    0.03    0.05       0
 2017 245   296    3729   0.133    1549   0.055    8893       0    8893    1151    2066    1543     781    3351       0      33       9      20       1       1       2      89      15      28      12       6      27    8767    1126    2017    1529     774    3322    0.00    3.99    1.03    2.16    0.23    0.18    0.38    0.00    1.24    0.16    0.40    0.19    0.16    0.33    0.00    2.75    0.87    1.77    0.04    0.03    0.05       0
 2017 246   297    3728   0.133    1549   0.055    8893       0    8893    1151    2066    1543     781    3351       0      33       9      20       1       1       2      89      15      28      12       6      27    8767    1126    2017    1529     774    3322    0.00    3.99    1.03    2.16    0.23    0.19    0.39    0.00    1.25    0.16    0.39    0.20    0.16    0.34    0.00    2.75    0.87    1.76    0.04    0.03    0.05       0
 2017 247   298    3728   0.133    1549   0.055    8893       0    8893    1151    2066    1543     781    3351       0      33       9      20       1       1       2      89      15      28      12       6      27    8767    1126    2017    1529     774    3322    0.00    4.00    1.03    2.15    0.23    0.19    0.40    0.00    1.25    0.16    0.39    0.20    0.16    0.34    0.00    2.74    0.87    1.76    0.04    0.03    0.05       0
 2017 248   299    3728   0.133    1549   0.055    8893       0    8893    1151    2066    1543     781    3351       0      33       9      20       1       1       2      89      15      28      12       6      27    8767    1126    2017    1529     774    3322    0.00    4.00    1.02    2.15    0.24    0.19    0.40    0.00    1.26    0.16    0.39    0.20    0.16    0.35    0.00    2.74    0.86    1.76    0.04    0.03    0.05       0
 2017 249   300    3728   0.133    1549   0.055    8893       0    8893    1151    2066    1543     781    3351       0      33       9      19       1       1       2      89      15      28      12       6      27    8767    1126    2017    1529     774    3322    0.00    4.00    1.02    2.14    0.24    0.19    0.41    0.00    1.26    0.16    0.39    0.20    0.16    0.36    0.00    2.74    0.86    1.76    0.04    0.03    0.05       0
 2017 250   301    3728   0.133    1549   0.055    8893       0    8893    1151    2066    1543     781    3351       0      33       9      19       1       1       2      89      15      28      12       6      27    8767    1126    2017    1529     774    3322    0.00    4.00    1.02    2.14    0.24    0.19    0.41    0.00    1.26    0.16    0.38    0.20    0.16    0.36    0.00    2.74    0.86    1.76    0.04    0.03    0.05       0
 2017 251   302    3728   0.133    1549   0.055    8893       0    8893    1151    2066    1543     781    3351       0      33       9      19       1       1       2      89      15      28      12       6      27    8767    1126    2017    1529     774    3322    0.00    4.00    1.01    2.13    0.24    0.20    0.42    0.00    1.27    0.15    0.38    0.20    0.17    0.37    0.00    2.74    0.86    1.75    0.04    0.03    0.05       0
 2017 252   303    3728   0.133    1549   0.055    8893       0    8893    1151    2066    1543     781    3351       0      32       9      19       1       1       2      89      16      28      12       6      27    8767    1126    2017    1529     774    3322    0.00    4.00    1.01    2.12    0.24    0.20    0.43    0.00    1.27    0.15    0.37    0.21    0.17    0.37    0.00    2.73    0.86    1.75    0.04    0.03    0.06       0
 2017 253   304    3728   0.133    1549   0.055    8893       0    8893    1151    2066    1543     781    3351       0      32       9      19       1       1       2      89      16      28      12       6      27    8767    1126    2017    1529     774    3322    0.00    4.01    1.01    2.12    0.25    0.20    0.43    0.00    1.28    0.15    0.37    0.21    0.17    0.38    0.00    2.73    0.86    1.75    0.04    0.03    0.06       0
 2017 254   305    3728   0.133    1549   0.055    8893       0    8893    1151    2066    1543     781    3351       0      32       9      19       1       1       2      89      16      28      12       6      27    8767    1126    2017    1529     774    3322    0.00    4.01    1.01    2.11    0.25    0.20    0.44    0.00    1.28    0.15    0.37    0.21    0.17    0.38    0.00    2.73    0.86    1.75    0.04    0.03    0.06       0
 2017 255   306    3728   0.133    1549   0.055    8892       0    8892    1151    2066    1543     781    3351       0      32       9      19       1       1       2      90      16      28      12       6      27    8767    1126    2017    1529     774    3321    0.00    4.02    1.01    2.11    0.25    0.21    0.45    0.00    1.29    0.15    0.36    0.21    0.17    0.39    0.00    2.73    0.86    1.74    0.04    0.03    0.06       0
 2017 256   307    3728   0.133    1549   0.055    8892       0    8892    1151    2066    1543     781    3351       0      32       9      19       1       1       2      90      16      28      12       6      27    8767    1126    2017    1529     774    3321    0.00    4.03    1.01    2.10    0.26    0.21    0.45    0.00    1.30    0.15    0.36    0.22    0.18    0.40    0.00    2.73    0.86    1.74    0.04    0.03    0.06       0
 2017 257   308    3728   0.133    1549   0.055    8892       0    8892    1151    2066    1543     781    3351       0      32       9      19       1       1       2      90      16      28      12       6      27    8767    1126    2017    1529     774    3321    0.00    4.03    1.01    2.10    0.26    0.21    0.46    0.00    1.31    0.15    0.36    0.22    0.18    0.40    0.00    2.72    0.85    1.74    0.04    0.03    0.06       0
 2017 258   309    3728   0.133    1549   0.055    8892       0    8892    1151    2066    1543     781    3351       0      32       9      19       1       1       2      90      16      28      12       6      27    8767    1126    2017    1529     774    3321    0.00    4.04    1.01    2.09    0.26    0.21    0.47    0.00    1.32    0.15    0.35    0.22    0.18    0.41    0.00    2.72    0.85    1.74    0.04    0.03    0.06       0
 2017 259   310    3728   0.133    1549   0.055    8892       0    8892    1151    2066    1543     781    3351       0      32       9      19       1       1       2      90      16      28      12       6      27    8767    1126    2017    1529     774    3321    0.00    4.04    1.01    2.08    0.26    0.21    0.47    0.00    1.32    0.16    0.35    0.22    0.18    0.41    0.00    2.72    0.85    1.73    0.04    0.03    0.06       0
 2017 260   311    3728   0.133    1549   0.055    8892       0    8892    1151    2066    1543     781    3351       0      32       9      19       1       1       2      90      16      29      12       6      27    8767    1126    2017    1529     774    3321    0.00    4.05    1.01    2.08    0.26    0.22    0.48    0.00    1.33    0.16    0.35    0.22    0.18    0.42    0.00    2.72    0.85    1.73    0.04    0.03    0.06       0
 2017 261   312    3728   0.133    1549   0.055    8892       0    8892    1151    2066    1543     781    3351       0      32       9      18       1       1       2      90      16      29      12       6      27    8766    1126    2017    1529     774    3321    0.00    4.04    1.01    2.07    0.26    0.22    0.48    0.00    1.33    0.16    0.34    0.22    0.18    0.42    0.00    2.72    0.85    1.73    0.04    0.03    0.06       0
 2017 262   313    3727   0.133    1549   0.055    8892       0    8892    1151    2066    1543     781    3351       0      31       9      18       1       1       2      90      16      29      12       6      27    8766    1126    2017    1529     774    3321    0.00    4.04    1.01    2.06    0.27    0.22    0.48    0.00    1.33    0.16    0.34    0.22    0.18    0.42    0.00    2.72    0.85    1.72    0.04    0.03    0.06       0
 2017 263   314    3727   0.133    1549   0.055    8892       0    8892    1151    2066    1543     781    3351       0      31       9      18       1       1       2      90      16      29      12       6      27    8766    1126    2016    1529     774    3321    0.00    4.04    1.02    2.05    0.27    0.22    0.49    0.00    1.32    0.16    0.33    0.22    0.18    0.42    0.00    2.71    0.85    1.72    0.04    0.03    0.06       0
 2017 264   315    3727   0.133    1549   0.055    8892       0    8892    1151    2065    1543     781    3351       0      31       9      18       1       1       3      90      16      29      12       6      27    8766    1126    2016    1529     774    3321    0.00    4.03    1.01    2.04    0.27    0.22    0.49    0.00    1.32    0.16    0.33    0.22    0.18    0.42    0.00    2.71    0.85    1.72    0.04    0.03    0.06       0
 2017 265   316    3727   0.133    1549   0.055    8892       0    8892    1151    2065    1543     781    3351       0      31       8      18       1       1       3      90      16      29      12       6      27    8766    1126    2016    1529     774    3321    0.00    4.02    1.01    2.04    0.27    0.22    0.49    0.00    1.31    0.16    0.32    0.22    0.18    0.42    0.00    2.71    0.85    1.71    0.04    0.03    0.07       0
 2017 266   317    3727   0.133    1549   0.055    8892       0    8892    1151    2065    1543     781    3351       0      31       8      18       1       1       3      90      16      29      12       6      27    8766    1126    2016    1529     774    3321    0.00    4.01    1.01    2.03    0.26    0.22    0.49    0.00    1.31    0.16    0.32    0.22    0.18    0.42    0.00    2.70    0.85    1.71    0.04    0.03    0.07       0
 2017 267   318    3727   0.133    1549   0.055    8891       0    8891    1151    2065    1543     781    3351       0      31       8      18       1       1       3      90      16      29      12       6      27    8766    1126    2016    1529     774    3321    0.00    4.00    1.01    2.02    0.26    0.22    0.49    0.00    1.30    0.16    0.31    0.22    0.18    0.42    0.00    2.70    0.85    1.71    0.04    0.04    0.07       0
 2017 268   319    3727   0.133    1549   0.055    8891       0    8891    1151    2065    1543     781    3351       0      31       8      18       1       1       3      91      16      29      12       6      27    8766    1126    2016    1529     774    3321    0.00    3.99    1.01    2.01    0.26    0.22    0.49    0.00    1.29    0.16    0.31    0.22    0.18    0.42    0.00    2.70    0.85    1.70    0.04    0.04    0.07       0
 2017 269   320    3727   0.133    1549   0.055    8891       0    8891    1151    2065    1543     781    3351       0      31       8      18       1       1       3      91      16      29      12       6      27    8766    1126    2016    1529     774    3321    0.00    3.98    1.01    2.00    0.26    0.22    0.49    0.00    1.28    0.17    0.30    0.22    0.18    0.42    0.00    2.70    0.85    1.70    0.04    0.04    0.07       0
 2017 270   321    3727   0.133    1549   0.055    8891       0    8891    1151    2065    1543     781    3351       0      31       8      18       1       1       3      91      16      29      12       6      27    8766    1126    2016    1529     774    3321    0.00    3.97    1.01    1.99    0.26    0.21    0.49    0.00    1.27    0.17    0.29    0.21    0.18    0.42    0.00    2.69    0.85    1.70    0.04    0.04    0.07       0
 2017 271   322    3727   0.133    1549   0.055    8891       0    8891    1151    2065    1543     781    3351       0      31       8      17       1       1       3      91      16      29      12       6      27    8766    1126    2016    1529     774    3321    0.00    3.95    1.02    1.98    0.26    0.21    0.49    0.00    1.26    0.17    0.29    0.21    0.18    0.42    0.00    2.69    0.85    1.69    0.05    0.04    0.07       0
 2017 272   323    3727   0.133    1549   0.055    8891       0    8891    1151    2065    1543     781    3351       0      30       8      17       1       1       3      91      16      29      12       6      27    8766    1126    2016    1529     774    3321    0.00    3.94    1.02    1.97    0.26    0.21    0.49    0.00    1.26    0.17    0.28    0.21    0.18    0.42    0.00    2.69    0.85    1.69    0.05    0.04    0.07       0
 2017 273   324    3727   0.133    1549   0.055    8891       0    8891    1151    2065    1543     781    3351       0      30       8      17       1       1       3      91      16      29      12       6      27    8766    1126    2016    1529     774    3321    0.00    3.94    1.02    1.97    0.26    0.21    0.49    0.00    1.26    0.17    0.28    0.21    0.18    0.42    0.00    2.69    0.85    1.69    0.05    0.04    0.07       0
 2017 274   325    3727   0.133    1549   0.055    8891       0    8891    1151    2065    1543     781    3351       0      30       8      17       1       1       3      91      16      29      12       6      27    8765    1126    2016    1529     774    3321    0.00    3.95    1.02    1.96    0.26    0.21    0.49    0.00    1.26    0.18    0.28    0.21    0.18    0.42    0.00    2.68    0.85    1.68    0.05    0.04    0.07       0
 2017 275   326    3727   0.133    1549   0.055    8891       0    8891    1151    2065    1543     781    3351       0      30       8      17       1       1       3      91      16      29      12       6      27    8765    1126    2016    1528     774    3321    0.00    3.95    1.03    1.96    0.26    0.21    0.49    0.00    1.27    0.18    0.28    0.21    0.18    0.42    0.00    2.68    0.85    1.68    0.05    0.04    0.07       0
 2017 276   327    3727   0.133    1549   0.055    8891       0    8891    1151    2065    1543     781    3351       0      30       8      17       1       1       3      91      16      29      12       6      27    8765    1126    2016    1528     774    3321    0.00    3.97    1.03    1.96    0.26    0.22    0.50    0.00    1.28    0.19    0.28    0.21    0.18    0.42    0.00    2.68    0.85    1.68    0.05    0.04    0.07       0
 2017 277   328    3727   0.133    1549   0.055    8891       0    8891    1151    2065    1543     781    3351       0      30       8      17       1       1       3      91      16      29      12       6      27    8765    1126    2016    1528     774    3321    0.00    3.94    1.03    1.95    0.26    0.21    0.49    0.00    1.26    0.19    0.28    0.21    0.17    0.41    0.00    2.68    0.85    1.68    0.05    0.04    0.07       0
 2017 278   329    3727   0.133    1549   0.055    8890       0    8890    1151    2065    1542     781    3351       0      30       8      17       1       1       3      91      16      30      12       6      27    8765    1126    2016    1528     774    3321    0.00    3.91    1.03    1.94    0.25    0.21    0.48    0.00    1.23    0.19    0.27    0.20    0.17    0.40    0.00    2.68    0.85    1.68    0.05    0.04    0.07       0
 2017 279   330    3726   0.133    1549   0.055    8890       0    8890    1151    2065    1542     781    3351       0      30       8      17       1       1       3      91      16      30      12       6      27    8765    1126    2016    1528     774    3321    0.00    3.88    1.03    1.94    0.24    0.20    0.46    0.00    1.20    0.19    0.26    0.20    0.17    0.39    0.00    2.68    0.85    1.67    0.05    0.04    0.07       0
 2017 280   331    3726   0.133    1549   0.055    8890       0    8890    1151    2065    1542     781    3351       0      30       8      17       1       1       3      91      16      30      12       6      27    8765    1126    2016    1528     774    3321    0.00    3.85    1.03    1.93    0.24    0.20    0.45    0.00    1.17    0.18    0.26    0.19    0.16    0.38    0.00    2.67    0.85    1.67    0.05    0.04    0.07       0
 2017 281   332    3726   0.133    1549   0.055    8890       0    8890    1151    2065    1542     781    3351       0      30       8      17       1       1       3      91      16      30      12       6      27    8765    1126    2016    1528     774    3321    0.00    3.82    1.03    1.92    0.23    0.19    0.44    0.00    1.14    0.18    0.25    0.19    0.16    0.37    0.00    2.67    0.85    1.67    0.05    0.04    0.07       0
 2017 282   333    3726   0.133    1549   0.055    8890       0    8890    1151    2065    1542     781    3351       0      30       8      17       1       1       3      91      16      30      12       6      27    8765    1126    2016    1528     774    3321    0.00    3.78    1.02    1.91    0.23    0.19    0.43    0.00    1.11    0.18    0.24    0.18    0.15    0.36    0.00    2.67    0.85    1.67    0.05    0.04    0.07       0
 2017 283   334    3726   0.133    1549   0.055    8890       0    8890    1151    2064    1542     781    3351       0      30       8      17       1       1       3      91      16      30      12       6      27    8765    1126    2016    1528     774    3321    0.00    3.74    1.02    1.90    0.22    0.18    0.42    0.00    1.08    0.17    0.24    0.17    0.15    0.35    0.00    2.66    0.84    1.67    0.05    0.04    0.07       0
 2017 284   335    3726   0.133    1549   0.055    8890       0    8890    1151    2064    1542     781    3351       0      30       8      17       1       1       3      91      16      30      12       6      27    8765    1126    2016    1528     774    3321    0.00    3.71    1.01    1.89    0.22    0.18    0.41    0.00    1.05    0.17    0.23    0.17    0.14    0.34    0.00    2.66    0.84    1.66    0.05    0.04    0.07       0
 2017 285   336    3726   0.133    1549   0.055    8890       0    8890    1151    2064    1542     781    3351       0      30       8      17       1       1       3      91      16      30      12       6      27    8765    1126    2016    1528     774    3321    0.00    3.67    1.00    1.89    0.21    0.17    0.40    0.00    1.02    0.16    0.23    0.16    0.14    0.33    0.00    2.65    0.84    1.66    0.05    0.04    0.07       0
 2017 286   337    3726   0.133    1549   0.055    8890       0    8890    1151    2064    1542     781    3351       0      30       8      17       1       1       3      92      16      30      12       6      27    8765    1126    2016    1528     774    3321    0.00    3.65    1.00    1.88    0.21    0.17    0.39    0.00    1.00    0.16    0.22    0.16    0.13    0.32    0.00    2.65    0.84    1.66    0.05    0.04    0.07       0
 2017 287   338    3726   0.133    1549   0.055    8890       0    8890    1151    2064    1542     781    3351       0      30       8      17       1       1       3      92      16      30      12       6      27    8765    1126    2016    1528     774    3321    0.00    3.62    0.99    1.87    0.20    0.17    0.39    0.00    0.97    0.15    0.22    0.16    0.13    0.31    0.00    2.65    0.84    1.66    0.05    0.04    0.07       0
 2017 288   339    3726   0.133    1549   0.055    8890       0    8890    1151    2064    1542     781    3351       0      30       8      16       1       1       3      92      16      30      12       6      27    8765    1126    2016    1528     774    3321    0.00    3.60    0.99    1.87    0.20    0.16    0.38    0.00    0.95    0.15    0.21    0.15    0.13    0.31    0.00    2.65    0.84    1.66    0.05    0.04    0.07       0
